87
 Ord_Energy   -325.4238392
O       0.37192033      4.56901529      5.17736776
H       -0.3702282      3.94226272      5.21799482
H       0.03038316      5.41936285      5.44208885
O       -2.5045363      2.53249933      2.57180479
H       -1.6871129      2.57180552      2.05692972
H       -2.2535134      2.69764704      3.48960862
O       2.94847924      -0.8857641      1.77229683
H       3.17696045      -1.7530466      2.12852159
H       3.71105130      -0.3005392      1.85903403
O       1.57992654      -2.7997370      4.95008953
H       0.71783129      -2.8974079      4.52448115
H       2.22822550      -3.1394474      4.32143817
O       -1.6963319      -1.3477833      1.72659399
H       -2.4939950      -0.8604379      1.96349632
H       -0.9348269      -0.8261433      2.02632042
O       2.26832646      2.91057809      6.57490707
H       1.65895225      3.55470018      6.19558647
H       2.87364313      2.67487955      5.86056008
O       -3.8948909      0.24142159      2.48948740
H       -4.7023558      0.36696966      1.99740084
H       -3.4268081      1.09660682      2.48494317
O       -0.4478755      -2.6045591      -0.3549293
H       -1.0563389      -2.9700157      -0.9925187
H       -0.9847990      -2.1518025      0.31803583
O       -2.1859346      -2.0536499      5.77626926
H       -2.0905773      -2.2201620      6.72081792
H       -2.9897759      -1.5283459      5.64134681
O       1.62315210      -0.6592793      -0.6846629
H       0.93286439      -1.3315604      -0.6680413
H       2.15053829      -0.7963963      0.11448472
O       3.58373507      1.91200917      4.20834118
H       3.33580337      1.05841770      4.59992150
H       4.21799039      1.70507230      3.51424017
O       1.39942971      2.00484732      -1.0257469
H       1.27028741      2.21383415      -1.9466301
H       1.47709905      1.03545495      -0.9626700
O       -1.6124279      -2.3496083      8.51016793
H       -0.6663628      -2.4026628      8.27866614
H       -1.7743384      -3.0163166      9.17142222
O       4.96557745      1.09104550      1.86376980
H       4.49079086      1.78385179      1.36931967
H       5.88333664      1.15197815      1.61370681
O       0.00012085      2.46287900      1.35879587
H       0.37991826      2.36322265      0.47745698
H       0.63610220      2.95689981      1.89834747
O       1.02163258      0.60261628      7.39984782
H       0.48878532      0.44354333      6.60203706
H       1.46015882      1.45740670      7.27639296
O       3.46201873      3.00661737      0.67839078
H       2.81383213      2.70999948      0.02751434
H       2.96148087      3.43584747      1.38415937
O       1.87103356      3.67113219      2.95825785
H       2.43890928      3.02379109      3.40507890
H       1.38023519      4.12338935      3.65416955
O       0.95229104      -2.2386299      7.70176427
H       1.22010492      -2.5273827      6.82015361
H       1.11493006      -1.2872050      7.73972813
O       -4.2089893      -0.3108464      5.29438978
H       -4.0512266      0.47952616      5.82421386
H       -4.1376546      -0.0584098      4.36560401
O       2.90230143      -0.3814658      5.44972967
H       2.45258248      -1.1995104      5.20536142
H       2.44223190      -0.0625026      6.23384141
O       -1.6233465      2.69180250      5.24598907
H       -2.3392212      2.58847412      5.88495373
H       -1.2080606      1.81784362      5.18092438
O       0.47580136      0.05050201      2.63883407
H       1.35657100      -0.2701192      2.40771167
H       0.33745391      0.89548356      2.18941206
O       0.82416082      -4.2012689      1.67174416
H       0.18862196      -4.0552326      2.38620835
H       0.46464892      -3.7484763      0.90017667
O       -0.9065794      -3.2143267      3.66714281
H       -1.2353925      -2.6266597      2.97371476
H       -1.4165358      -2.9808778      4.45642195
O       -3.5199845      1.84821888      7.09448904
H       -2.8629852      1.37034473      7.63316696
H       -4.1556015      2.21647676      7.70216604
O       -1.6307501      0.50353445      8.50789769
H       -1.7171171      -0.4519941      8.61445187
H       -0.7034473      0.65914386      8.29171522
O       3.20887195      -3.5218902      2.73596348
H       3.85345421      -4.2191111      2.65228310
H       2.39684098      -3.8297069      2.29182412
O       -0.5336591      0.17254863      5.18213173
H       -0.1016072      0.06210871      4.32387265
H       -1.0902805      -0.5968769      5.35398407