39
 Ord_Energy   -130.1081390
O       1.03063786      10.8666582      -6.5690112
H       0.33913001      10.2440376      -6.8241381
H       1.86242986      10.3727922      -6.6242175
O       -0.5204436      12.2917767      -10.581004
H       -1.0749608      13.0633020      -10.661221
H       0.16726811      12.5194559      -9.9347944
O       -0.2401408      9.54549503      -10.371152
H       -0.4267771      10.4841394      -10.515658
H       -0.5070669      9.34476948      -9.4668912
O       4.99172497      11.3337860      -5.3822407
H       5.51018667      11.3269958      -4.5825300
H       4.18579054      11.8474398      -5.1935071
O       5.16430855      12.6502399      -7.9322495
H       5.28360128      12.1775246      -7.0987248
H       4.78474665      12.0143938      -8.5534734
O       2.66015840      12.7368288      -5.1640214
H       2.75521779      13.4368963      -5.8223652
H       1.94877374      12.1658535      -5.4823498
O       3.52062130      10.8530722      -9.3985061
H       2.78630447      11.4726782      -9.2847824
H       3.19642186      10.1383772      -9.9615736
O       3.18986630      14.4447412      -7.4110550
H       3.46666050      15.3516560      -7.5067768
H       3.96087813      13.8887062      -7.6257886
O       3.48018742      9.54195309      -6.9345164
H       4.08852816      9.99351120      -6.3380599
H       3.57992864      9.96128845      -7.8028760
O       2.29240751      8.70680809      -10.736850
H       1.36621678      9.00892258      -10.687363
H       2.39828110      8.27880287      -11.581820
O       1.84457803      7.59586143      -8.1181650
H       2.05328345      7.80497789      -9.0373554
H       2.49052286      8.08523560      -7.5904464
O       1.44758201      12.6405649      -8.6719951
H       1.21017253      12.0572290      -7.9358801
H       1.95963800      13.3698730      -8.3016958
O       -0.5587255      8.78116894      -7.6100206
H       0.25608546      8.26672554      -7.7566781
H       -1.2073302      8.17494678      -7.2622389