57
 Ord_Energy   -203.0258030
O       -0.3232114      -9.1044149      -6.0695924
H       0.22812632      -8.6120653      -6.7038312
H       -0.6749577      -9.8556709      -6.5394525
O       0.56340039      -5.5433630      -1.4329354
H       -0.0052966      -4.7955722      -1.6523433
H       1.46517920      -5.3051123      -1.6792823
O       3.36830926      -3.0978326      -4.2336158
H       3.45346689      -3.7233674      -3.5050351
H       2.45201850      -2.7923290      -4.1891245
O       -1.4474266      -7.1883225      -4.3409490
H       -1.1823167      -7.5139865      -3.4699118
H       -1.1858328      -7.8617725      -4.9822750
O       1.54750347      -2.7399947      -8.3051958
H       0.91611356      -2.2904310      -7.7152214
H       1.72028601      -2.1435368      -9.0283317
O       0.08111489      -5.0676698      -7.7065405
H       0.61180598      -4.3388185      -8.0527200
H       0.35555825      -5.1963973      -6.7833437
O       3.28218174      -5.1871213      -2.2583940
H       4.01116610      -5.4345979      -1.6945872
H       3.24986100      -5.8434376      -2.9766981
O       1.19118857      -7.6496272      -7.7753505
H       0.75659734      -6.8026313      -7.9412508
H       2.10825419      -7.4351558      -7.5640883
O       3.55115962      -4.1296453      -6.8032550
H       3.56675649      -3.7426245      -5.9154667
H       2.94451857      -3.5962212      -7.3274822
O       -1.2601157      -3.4769332      -2.1977839
H       -1.8010419      -3.8799533      -2.9012384
H       -1.8572751      -2.9914121      -1.6353563
O       -0.3306470      -1.7630280      -6.6082501
H       -0.0009843      -1.9824106      -5.7242369
H       -1.1221456      -2.3007309      -6.7260532
O       -2.2976825      -3.8526048      -6.9626421
H       -2.9785852      -3.9336607      -7.6263766
H       -1.5295671      -4.3483772      -7.2913413
O       0.58399671      -2.8048005      -4.2027397
H       0.63823068      -3.7213041      -4.5168376
H       -0.0069548      -2.8301317      -3.4419324
O       -2.6260409      -4.6570725      -4.2266464
H       -2.5726046      -4.3243022      -5.1303682
H       -2.3773927      -5.5906710      -4.2721028
O       -0.3605514      -8.0232715      -1.8978289
H       -0.0077015      -7.1411490      -1.6785613
H       -0.7130958      -8.3877353      -1.0909465
O       1.44360864      -9.1198177      -3.8165497
H       0.86741000      -8.8527984      -3.0886602
H       0.86736476      -9.2403869      -4.5818190
O       0.66735703      -5.4528598      -5.0445785
H       1.48180747      -5.9168200      -4.8165893
H       -0.0682390      -5.9980635      -4.7383151
O       2.97355556      -6.9234733      -4.3287262
H       2.52054024      -7.7613382      -4.1479296
H       3.35866308      -6.9673547      -5.2122221
O       3.79770756      -6.7868776      -6.9951381
H       3.73264503      -5.8131380      -6.9686603
H       4.62932014      -6.9961466      -7.4110827