39
 Ord_Energy   -129.6405180
O       -0.3064843      9.92881012      -5.1179804
H       -0.4289688      10.6749210      -4.5186572
H       -0.2993912      10.3019981      -6.0124287
O       0.02166602      13.4278135      -6.3398842
H       -0.1693038      12.6681318      -6.9068918
H       -0.2070916      13.1563759      -5.4421558
O       -0.1484004      7.48471260      -6.5353198
H       -0.3130823      8.18623352      -5.8915643
H       0.78292882      7.24694633      -6.4436597
O       -0.9396265      8.52310085      -8.9065446
H       -0.6688424      8.07482529      -8.0844183
H       -1.8501389      8.28472900      -9.0599165
O       2.67479515      7.09941101      -6.3096580
H       3.20382595      6.31104374      -6.2279543
H       2.92456651      7.52197409      -7.1524033
O       2.71686864      10.9801588      -7.4010748
H       2.70954156      10.5023756      -6.5581340
H       2.87378430      11.9064283      -7.1820902
O       3.24566913      8.46257877      -8.5631666
H       2.65722418      8.34434032      -9.3215475
H       3.19099259      9.39610767      -8.3218784
O       2.46953106      9.57731152      -4.9843516
H       2.66117811      8.68212414      -5.2898764
H       1.50411975      9.64737129      -4.9435062
O       2.50578308      12.1857672      -3.8883199
H       2.68360329      11.2674379      -4.1323986
H       2.74090576      12.7177019      -4.6589875
O       2.74200892      13.6089344      -6.3773655
H       3.06162858      14.4741449      -6.6175274
H       1.76888299      13.6505194      -6.3985981
O       -0.2076607      12.3494701      -3.6783509
H       -0.4996812      12.7072840      -2.8445870
H       0.76603538      12.3281775      -3.6510171
O       -0.0671111      10.9596815      -7.7162251
H       -0.3969428      10.2241106      -8.2443437
H       0.90072417      10.9282675      -7.7492170
O       1.31562996      8.23681259      -10.557607
H       1.12755179      8.56234169      -11.434738
H       0.48895794      8.31518078      -10.058864