18
 Ord_Energy   -45.5610428
O       25.6620083      3.04551196      24.9360046
H       25.8322029      3.41202021      25.8089066
H       24.9255829      3.57704687      24.6098347
O       23.2442741      4.70034313      24.8919315
H       22.6492405      3.92908049      24.8898277
H       22.9001656      5.31156826      24.2467480
O       24.1816177      2.14533257      28.4838505
H       23.7253284      2.23171663      29.3174610
H       24.3390388      3.04960442      28.1719437
O       21.7741547      2.42836881      24.9229145
H       21.0600376      1.86492395      24.6404743
H       22.4607868      1.83781254      25.2809086
O       23.8817215      1.03187966      25.9234276
H       23.9588699      1.25288796      26.8622856
H       24.5999069      1.51085746      25.4899139
O       24.6627674      4.65475988      27.3132820
H       24.1218872      4.73830318      26.5118008
H       24.9676971      5.53370142      27.5247440