84
 Ord_Energy   -312.7813007
O       -3.1278124      -1.1796403      -2.8138329
H       -3.1753456      -0.2575810      -2.5053471
H       -3.8188009      -1.2914654      -3.4613922
O       -0.2871833      -1.4601972      -2.9280463
H       -1.2419121      -1.4011307      -3.0566185
H       -0.1328930      -2.2418883      -2.3797974
O       2.06720322      -0.0031713      -3.3720622
H       1.78925470      0.89976560      -3.5670314
H       1.27852669      -0.5585813      -3.4284013
O       0.02402865      -3.4456057      -0.9633544
H       -0.0215334      -4.2862242      -0.4928272
H       0.75063365      -2.9569624      -0.5477103
O       -1.4883316      3.54151439      -3.0306247
H       -2.0286523      2.76438718      -2.8458900
H       -0.6326087      3.21527516      -3.3297500
O       -2.5392210      -2.4649260      -0.3365989
H       -2.8799811      -2.0914468      -1.1568583
H       -1.6436145      -2.7758162      -0.5324195
O       -2.9690597      1.34057388      -1.8180784
H       -2.0732088      1.20161861      -1.4699629
H       -3.4434221      1.88736495      -1.1809136
O       1.25979977      2.74309802      -3.6012444
H       1.74204932      3.41325542      -4.0804317
H       1.43171159      2.89904075      -2.6552512
O       -0.1425139      -5.5683935      0.92502919
H       -0.1596353      -6.5215457      0.92184867
H       -1.0190611      -5.2718213      1.22974463
O       -0.3760339      0.76404367      -1.1710985
H       -0.1801099      0.05307547      -1.7938960
H       0.31650429      1.43608593      -1.2263660
O       -2.4725251      -4.4411807      1.74088763
H       -2.7193833      -3.8212235      1.04276941
H       -2.2166474      -3.9016832      2.50102503
O       3.75528660      -0.7648065      -1.3847784
H       4.56739695      -1.0783395      -1.7744341
H       3.18381075      -0.4786929      -2.1193544
O       -4.0674206      3.11860250      0.08901908
H       -4.8991770      3.57895783      0.15487080
H       -3.3910079      3.78474070      -0.1370339
O       1.99024356      -2.0555233      0.35515171
H       2.66667426      -1.6625180      -0.2083730
H       1.43647080      -1.3368472      0.69702968
O       -2.0098087      4.72745901      -0.5533283
H       -1.7508996      4.44380283      -1.4427777
H       -1.2882615      4.48966849      0.04130798
O       -2.3577170      -0.8111672      1.88344484
H       -2.0985585      -1.4493473      2.56225417
H       -2.4990474      -1.3129326      1.06874253
O       0.28417488      -0.1298941      1.29293907
H       -0.5561957      -0.4164627      1.66570364
H       0.06172819      0.26393504      0.43730810
O       1.50230606      2.79574845      -0.9049970
H       2.28278133      2.39747245      -0.4905055
H       0.93647466      3.12882156      -0.1956043
O       1.20019660      -3.5870265      2.53359779
H       0.86309094      -4.3841693      2.10781770
H       1.60680108      -3.0730536      1.82075399
O       -2.3745835      1.93963687      2.01592453
H       -2.4627863      0.97782728      1.94194848
H       -3.0646041      2.33048444      1.46756885
O       3.54828628      1.50187947      0.33461138
H       3.73382814      0.71232308      -0.1879021
H       3.31310813      1.20435678      1.22290470
O       -0.1492762      3.47710840      1.21490416
H       0.40527885      3.53296660      2.00217570
H       -0.8822911      2.88892382      1.44650474
O       -1.2454635      -2.6668136      3.59497023
H       -0.3943368      -2.9579213      3.23724453
H       -1.0432341      -2.0916389      4.34415472
O       2.38125497      0.74972381      2.80779437
H       2.49277213      0.00104364      3.40893740
H       1.59467754      0.53473349      2.28184591
O       -0.4169019      -0.7921841      5.49459839
H       -0.6001754      -0.7280736      6.42838980
H       -0.5972145      0.08612823      5.11515410
O       1.39552672      3.17339770      3.56945392
H       2.03431734      3.72191834      4.01686266
H       1.84703363      2.34153256      3.34290042
O       -0.8839517      1.65121935      4.41005612
H       -0.1319192      2.23244281      4.24695381
H       -1.5004298      1.80785620      3.68361367
O       2.14183074      -1.5121304      4.37718725
H       1.95299899      -2.3171653      3.88203703
H       1.32278913      -1.2868880      4.83701440