66
 Ord_Energy   -238.4927040
O       11.3207815      10.4756757      -13.578835
H       11.6515927      11.1454210      -12.970388
H       11.8222033      10.5966544      -14.397673
O       16.6380583      7.70853091      -14.618036
H       17.2704164      7.86453944      -13.904941
H       15.9997608      7.07076702      -14.271900
O       17.0013730      10.0849997      -10.696940
H       16.0593733      10.1794519      -10.895315
H       17.0649303      9.65237912      -9.8326737
O       16.7071480      12.3365056      -14.353276
H       17.2763036      12.3428408      -13.572650
H       17.2331164      11.9984463      -15.091401
O       13.6429844      8.55526563      -17.334996
H       13.2434183      8.15631260      -18.103546
H       13.4403392      7.96929212      -16.583659
O       15.5171892      6.63373114      -9.6394436
H       16.1035685      6.19095902      -10.264607
H       14.7354152      6.89375662      -10.143263
O       14.9230321      6.01309826      -13.258589
H       14.4341413      6.55993532      -12.625051
H       15.6835167      5.66864425      -12.774744
O       14.3436919      10.2495597      -11.456707
H       14.6116850      10.1229130      -12.382667
H       13.7628370      11.0187080      -11.455072
O       18.1716425      10.9828754      -16.314876
H       18.6780409      11.2701058      -17.070182
H       17.5562942      10.3001435      -16.636921
O       17.2659311      5.63207800      -11.689610
H       17.9620216      4.98398391      -11.615912
H       17.6953147      6.47889397      -11.897520
O       16.4791912      9.00129885      -17.048817
H       16.6235481      8.41103818      -16.294206
H       15.5413089      8.92443694      -17.255739
O       19.4569339      10.0436489      -13.886070
H       19.2292534      10.7769022      -13.300115
H       19.1044814      10.2819149      -14.751519
O       15.2029313      10.0199153      -14.002822
H       15.7687448      10.7937992      -14.129931
H       15.6894326      9.23591814      -14.282330
O       11.2647443      7.82453597      -13.095596
H       10.3601573      7.53717151      -13.005265
H       11.2409847      8.78773751      -13.240615
O       13.0529843      6.98917730      -15.174982
H       13.6835575      6.47820965      -14.653927
H       12.3778538      7.27387336      -14.546751
O       18.3575683      12.0023117      -12.095007
H       18.8029867      12.6044859      -11.504649
H       17.8926315      11.3550772      -11.536922
O       18.2222019      8.14158528      -12.352754
H       18.8114217      8.69401474      -12.888234
H       17.7663225      8.74302239      -11.748628
O       16.9413492      8.61780308      -8.4092367
H       16.9261111      8.51522756      -7.4621017
H       16.4106666      7.88579717      -8.7688206
O       13.9763679      13.1430157      -14.331563
H       14.9360696      13.0385368      -14.365128
H       13.6202685      12.5114856      -14.970937
O       13.5186027      7.59386755      -11.423431
H       12.6724866      7.59992956      -11.888482
H       13.7837382      8.52092289      -11.339903
O       12.7018128      12.4655987      -12.016077
H       13.1646842      12.7823214      -12.812552
H       12.3266975      13.2336746      -11.594128
O       13.1408921      10.7841701      -15.675650
H       13.8338280      10.4859090      -15.064441
H       13.1819473      10.1626932      -16.410272