90
 Ord_Energy   -338.1912359
O       -4.8798905      0.57650729      -1.8247742
H       -5.6725768      1.10786707      -1.8107352
H       -4.1683364      1.14814446      -2.1574723
O       -0.3523602      2.07097539      0.51933919
H       -1.1351606      2.15677331      1.08267288
H       -0.0539591      1.15819014      0.63045937
O       -3.1994136      -0.2862744      0.31258582
H       -2.4380198      -0.2377629      -0.2870448
H       -3.9592085      -0.0725126      -0.2390667
O       -2.4447796      1.71531173      2.23213774
H       -1.8940813      1.32312447      2.92236892
H       -2.8017621      0.98672012      1.70684823
O       -1.2719176      -0.2928666      -1.6705560
H       -0.3139460      -0.1999170      -1.5940313
H       -1.4514727      -1.1227681      -2.1304811
O       0.34642389      -0.4601260      1.44574305
H       -0.2943959      -1.1726408      1.33266896
H       0.14828620      -0.0527738      2.30106572
O       -0.3306891      0.68305996      3.90641735
H       -0.0766834      -0.1039850      4.40750098
H       0.37899144      1.32776424      4.02447999
O       -1.6832766      -2.3883486      1.28683192
H       -2.3771663      -1.7768121      1.00973259
H       -1.4004066      -2.9009650      0.51685749
O       -0.3905725      3.26677246      -1.9567186
H       -0.3727022      2.84233157      -1.0841847
H       -1.2431528      3.02819164      -2.3394029
O       -2.6102164      1.81556520      -2.8805131
H       -2.6446943      1.58822031      -3.8184649
H       -2.0878464      1.11442609      -2.4569798
O       2.02391592      3.13734195      1.38917529
H       2.10800045      2.93969805      2.32923149
H       1.13996394      2.83489617      1.12916378
O       -2.6825648      0.62301369      -5.4231880
H       -3.1413500      0.78424686      -6.2432770
H       -3.1666847      -0.0862413      -4.9623821
O       1.48542618      -0.0052149      -1.7191139
H       2.11515869      0.37847431      -1.0972199
H       1.45909870      0.59095811      -2.4792021
O       2.06087999      2.24480698      4.07125030
H       2.49122577      1.37014704      4.08015512
H       2.38613466      2.71994927      4.83156903
O       -3.9680887      -1.2334246      -3.9149239
H       -4.3845521      -0.7882978      -3.1679087
H       -3.3456952      -1.8761290      -3.5480358
O       2.01126396      4.56154435      -1.0804977
H       2.05408999      4.27244417      -0.1593873
H       1.12837460      4.33110399      -1.3977677
O       -1.8311600      -2.7606653      -2.9088463
H       -1.1372608      -2.8153537      -3.5804282
H       -1.5498577      -3.3188187      -2.1719975
O       0.71980789      -1.6745089      5.04742442
H       0.44970822      -2.3679660      4.41878222
H       0.62247798      -2.0472190      5.91963841
O       3.42893573      1.32999876      -0.2101442
H       3.70936292      1.82611937      -0.9879861
H       3.01209143      1.96742606      0.38805558
O       -0.5012209      -3.9076870      -0.7319609
H       0.23710139      -3.4715632      -1.1837479
H       -0.0967557      -4.4923379      -0.0790303
O       -0.1093886      -3.5233466      3.27021244
H       0.36044946      -4.1486808      2.70688631
H       -0.7970152      -3.1446025      2.70474713
O       3.05732961      -0.9784155      1.33137502
H       3.41080670      -0.2385001      0.82180468
H       2.09477928      -0.8547927      1.35428678
O       1.37663375      1.95885605      -3.6759372
H       2.25058457      2.31246493      -3.4687128
H       0.74318386      2.46348667      -3.1434684
O       3.01602241      -0.2835123      4.05614799
H       3.17352366      -0.6010172      3.15686309
H       2.32862129      -0.8499076      4.42857211
O       1.61208349      -2.7182756      -2.1253013
H       1.32930782      -2.8129738      -3.0423060
H       1.64483649      -1.7653691      -1.9537567
O       0.07438137      -0.0548962      -5.1689855
H       -0.8384583      0.22713659      -5.3040227
H       0.54604889      0.69029607      -4.7764350
O       0.37084873      -2.6810982      -4.6643398
H       0.56681183      -3.1332480      -5.4802922
H       0.31338653      -1.7307703      -4.8742205
O       3.73397719      3.02628220      -2.5009853
H       4.48405459      3.51357916      -2.8310697
H       3.17388342      3.66207002      -2.0181482
O       1.07424919      -5.1781943      1.26190289
H       1.41277498      -6.0652602      1.34766602
H       1.81092015      -4.6267524      0.93937132
O       2.95834644      -3.5519776      0.21926149
H       3.11389088      -2.7040604      0.65691290
H       2.65922727      -3.3370603      -0.6735817