60
 Ord_Energy   -214.7839200
O       -5.6384277      3.53381848      1.29454768
H       -5.1632862      4.06520367      0.62903184
H       -6.4225707      3.19765115      0.86957252
O       -0.6936101      5.91521931      0.83805519
H       -1.3745080      6.48276997      0.45559132
H       -1.1308527      5.39755106      1.53618753
O       -3.5350179      6.93433046      2.85496736
H       -3.1230454      7.51424360      3.50744510
H       -3.0467624      6.09534407      2.89796519
O       1.51675570      4.29319668      1.72573173
H       1.83712459      4.78085041      2.49398589
H       0.91437244      4.89303875      1.27080226
O       -1.7508721      3.76368761      -0.9020333
H       -1.6186379      2.90688682      -0.4768250
H       -1.1917051      4.39054251      -0.4323603
O       2.03328276      5.85094929      4.07113409
H       1.45547068      6.55962849      3.73329115
H       2.83444023      6.26662445      4.37679529
O       0.40002209      1.80483365      2.24813628
H       0.27462009      1.73299062      3.20005059
H       0.85092461      2.64494371      2.07775879
O       0.24122901      7.59616995      3.04381776
H       -0.1018572      7.17025948      2.24992752
H       -0.5172250      7.84878063      3.58451605
O       -2.1816694      5.98908615      6.21449757
H       -2.9522864      5.40924501      6.19499111
H       -1.4325668      5.44224119      5.93724060
O       -0.1636035      1.68015695      5.06900597
H       0.11861880      0.98204988      5.65313339
H       -1.1379426      1.70601952      5.10798120
O       -5.5086317      5.09707832      3.67677307
H       -5.6443138      4.55727577      2.88862252
H       -4.9902916      5.85985422      3.38952351
O       -0.1910846      4.45600176      5.05008698
H       0.64460516      4.86196518      4.78844261
H       -0.0545554      3.50366759      5.13442373
O       -4.3688917      4.17635632      5.97061300
H       -4.8070583      4.47984886      5.15618944
H       -5.0545706      4.08132410      6.62722921
O       -3.3720939      2.27366447      2.35335898
H       -2.8360276      1.86785936      1.65939808
H       -4.1874671      2.60465002      1.95638704
O       -1.9897106      4.65602732      2.88625240
H       -2.4438889      3.81901145      2.73097610
H       -1.3895900      4.54625416      3.63448453
O       -1.9780023      8.23727036      4.75481033
H       -2.0215630      9.00868034      5.31268406
H       -2.0533316      7.46049881      5.34029102
O       -1.5421363      1.29137814      0.49110812
H       -1.3803932      0.46141180      0.05172288
H       -0.8011093      1.43385160      1.11010766
O       -3.0043661      7.45246840      0.22300950
H       -3.1996750      8.34805489      -0.0396539
H       -3.2717733      7.36381483      1.15438628
O       -2.8449530      1.93285048      5.05122185
H       -3.3358161      2.66168642      5.44833899
H       -3.1036450      1.92014611      4.11845779
O       -4.2078390      4.94388962      -0.4826453
H       -3.9272904      5.85528755      -0.3515133
H       -3.4042582      4.46105099      -0.7290822