33
 Ord_Energy   -104.4181370
O       -9.3469800      -0.2964284      10.5119257
H       -9.6766176      -0.6485955      9.68955040
H       -9.9720220      0.39499325      10.7911587
O       -6.0827317      -2.2230742      16.0896091
H       -7.0328326      -2.0108492      16.1244469
H       -5.9291105      -2.9053559      16.7369194
O       -8.6788539      -1.3887258      15.9787054
H       -8.6187982      -0.4446379      16.1699276
H       -8.9132394      -1.4587261      15.0431871
O       -8.0328779      1.42393637      16.2785721
H       -7.1149010      1.17931199      16.0607243
H       -7.9951796      1.96601737      17.0613804
O       -10.881150      1.67972589      11.6374226
H       -10.335399      1.71835709      12.4404192
H       -11.318356      2.52456927      11.5727911
O       -4.9321932      0.42153537      12.8251438
H       -5.6877183      0.77814668      12.3257971
H       -4.1451940      0.68079907      12.3536329
O       -9.0425586      1.42545033      13.6809464
H       -8.7604303      1.59033775      14.5877485
H       -8.9635744      0.46800896      13.5437193
O       -8.8344888      -1.3067019      13.1408434
H       -7.9187092      -1.6281379      13.1225071
H       -9.0908660      -1.1647499      12.2227974
O       -6.2003178      -2.1040303      13.2386656
H       -5.6747822      -1.3199530      13.0352859
H       -6.0511713      -2.2841448      14.1755466
O       -5.5605139      0.53779662      15.6067810
H       -5.2887730      0.57583582      14.6811867
H       -5.5883650      -0.4001970      15.8369379
O       -7.1657705      1.32930326      11.5706625
H       -7.7283988      1.58001113      12.3161516
H       -7.7231555      0.75921565      11.0291872