84
 Ord_Energy   -312.9994541
O       2.51309987      -0.3098667      -2.8154840
H       3.44458029      -0.5611763      -2.8743755
H       2.49710172      0.64535419      -2.6760646
O       -0.4631653      2.77225497      1.11127741
H       -0.4220303      3.54168080      1.67239952
H       0.32804070      2.23737561      1.30110235
O       4.61900525      -3.3062235      -3.9050051
H       3.99151847      -3.2502076      -4.6351390
H       4.17331591      -3.7531515      -3.1742606
O       2.41081465      -3.0571819      3.09002109
H       2.70783160      -3.4467995      3.90800129
H       2.07857343      -2.1678473      3.30990858
O       -1.4564207      -1.1546238      3.21607340
H       -2.1889078      -1.1718994      3.82645752
H       -1.7327856      -0.5959598      2.46850665
O       3.40520212      -4.4393997      -1.5834615
H       3.47635682      -3.8369385      -0.8251567
H       3.68467245      -5.2981813      -1.2736074
O       1.71569443      1.16168970      1.44266577
H       2.57941084      1.52188014      1.20734184
H       1.56258623      0.41774798      0.83756659
O       -2.1500376      0.47295671      1.15919166
H       -1.6934509      1.32228817      1.18594620
H       -2.1524844      0.19992672      0.23307424
O       -1.6928882      -0.3422272      -1.5181548
H       -1.8169125      -0.4716169      -2.4650972
H       -1.3903349      -1.1955722      -1.1687908
O       0.71206766      -4.0494193      -2.4584514
H       0.76871970      -3.3792940      -3.1519128
H       1.61882825      -4.2389186      -2.1891739
O       1.77370296      1.96987798      -6.1664594
H       1.44116824      2.47452509      -6.9045941
H       1.03757696      1.88904067      -5.5350748
O       1.30760552      -0.6289363      3.58556145
H       1.51138977      0.06189861      2.94255949
H       0.34969292      -0.7508362      3.54913697
O       4.12692132      1.98547160      0.32075696
H       4.84322783      2.55430289      0.58864335
H       4.51425226      1.10571103      0.15492138
O       3.47014617      -2.6612587      0.53045384
H       2.78818237      -2.0392351      0.23240512
H       3.23369716      -2.8893597      1.43792763
O       2.55669400      2.36062243      -2.0170696
H       1.61563528      2.31502666      -1.7981417
H       3.06433536      2.28646700      -1.1994167
O       5.13069654      -0.4528238      -0.1917359
H       5.28280919      -0.6003999      -1.1364765
H       4.71250738      -1.2539624      0.14395026
O       5.72026205      0.97806832      -5.0001033
H       5.11041768      1.70207387      -4.7673237
H       6.50887342      1.38207655      -5.3513467
O       5.24351059      -0.8522688      -2.9328242
H       5.51914925      -0.2525011      -3.6363294
H       5.15406292      -1.7420924      -3.3085546
O       1.51616036      -0.9244424      -0.3094499
H       1.82938247      -0.7227950      -1.2015361
H       0.75190516      -1.5115229      -0.3807099
O       -0.6257457      -2.6504133      -0.5476955
H       -0.2305060      -3.2547806      -1.1934717
H       -0.5637870      -3.0478261      0.33214874
O       -1.5758534      -0.7700027      -4.3182537
H       -2.1832689      -1.2468106      -4.8776325
H       -0.7240673      -1.2391980      -4.3615731
O       3.84826147      2.83864189      -4.4372719
H       3.43524705      2.80634448      -3.5637304
H       3.13969754      2.65339792      -5.0669955
O       -0.2840806      1.75800143      -4.4197460
H       -0.2755534      2.01650770      -3.4905064
H       -0.8068198      0.94792339      -4.4653708
O       2.84157155      -2.7961403      -6.1112450
H       2.89756936      -3.2631078      -6.9401990
H       3.13218130      -1.8805240      -6.2816922
O       0.89250213      -1.9264838      -4.3310169
H       1.46179010      -2.2882550      -5.0215127
H       1.43899253      -1.3111450      -3.8180359
O       -0.1742415      2.02172353      -1.5840387
H       -0.6200037      1.16315416      -1.5428742
H       -0.3555256      2.45328566      -0.7407961
O       3.56648924      -0.2293121      -6.4531173
H       4.36275477      0.11340649      -6.0306209
H       2.90471289      0.47012796      -6.3819260
O       -0.2773646      -3.4677481      2.03917906
H       0.62733167      -3.4620794      2.37087100
H       -0.7298112      -2.7430725      2.49142216