75
 Ord_Energy   -277.4203800
O       -7.8907046      -2.3128321      6.12765932
H       -6.9968276      -2.0068962      6.32353687
H       -8.4967289      -1.6417813      6.46312284
O       -10.252572      -2.3876428      2.42595053
H       -9.6521587      -2.9813897      2.89101982
H       -10.412767      -1.6599611      3.04261589
O       -8.2689924      -3.8317689      3.91747284
H       -8.1704006      -3.3066759      4.73272228
H       -8.3157815      -4.7456054      4.18482351
O       -5.4299044      0.59894794      0.20597205
H       -5.7537698      -0.2723705      -0.0477902
H       -6.2038874      1.08414686      0.53365296
O       -6.3544931      1.08938396      5.72099257
H       -6.7822351      0.74424583      4.92013216
H       -5.9253497      0.33696756      6.14465094
O       -5.2210021      5.23386574      0.88401145
H       -5.2355990      5.96085691      0.26743653
H       -4.8828806      4.46108103      0.39618412
O       -10.200203      1.63078976      0.38712460
H       -10.822275      2.00600004      -0.2295640
H       -10.531999      1.83159006      1.28154910
O       -9.7654266      -0.2962173      6.96019411
H       -10.335247      -0.3162940      7.72419786
H       -9.4384355      0.61773866      6.87795401
O       -4.2176060      -1.4398733      4.04196596
H       -3.9111967      -0.6760597      3.53767014
H       -4.9061245      -1.8476343      3.49762869
O       -4.1305499      3.05522275      -0.3266241
H       -3.2792437      2.91882062      0.10764785
H       -4.5712151      2.19572377      -0.3145116
O       -10.203876      -0.2119333      4.18472624
H       -9.2717056      -0.1188020      3.93329430
H       -10.215892      -0.2982920      5.14442968
O       -6.7422900      -1.8737452      -0.2167549
H       -6.7205276      -2.4830372      -0.9491979
H       -7.6690063      -1.5822117      -0.1198241
O       -3.7057561      0.79618382      2.39315057
H       -4.2922773      0.64977187      1.63706684
H       -2.9602189      1.31679463      2.07018185
O       -7.5470080      0.12397148      3.42576647
H       -7.1483998      -0.7052807      3.13158417
H       -7.5802912      0.71558243      2.66339469
O       -5.2316880      -1.3351672      6.53165865
H       -4.8079199      -1.4011151      5.65541124
H       -4.5882210      -1.6246364      7.17210054
O       -1.8683000      2.70381331      1.40141666
H       -0.9245361      2.83074450      1.36365533
H       -2.2296521      3.42425776      1.94840324
O       -9.2024135      4.01076317      4.35079193
H       -9.4725971      4.89734650      4.58116245
H       -8.3981761      4.10090208      3.81494212
O       -10.879941      2.16843033      2.93085551
H       -10.773798      1.33551931      3.41302776
H       -10.373442      2.82736182      3.41901040
O       -6.3988599      -2.2811257      2.54489112
H       -7.0278334      -2.9167394      2.91126704
H       -6.5027666      -2.2587192      1.58576298
O       -9.2700862      -1.1041392      0.19254977
H       -9.6662807      -1.5927504      0.93042552
H       -9.6507873      -0.2208903      0.20866404
O       -8.7451782      2.18395638      6.55734825
H       -8.9646492      2.80559254      5.85530901
H       -7.8403668      1.88937914      6.37395382
O       -3.1920700      4.59210062      2.85237265
H       -3.8249983      4.98568630      2.23985553
H       -3.7184484      4.03950310      3.44753551
O       -4.8913540      2.70336723      4.05357218
H       -5.3196663      2.23103666      4.77938080
H       -4.5076103      2.02525520      3.47923374
O       -7.5807137      1.88937557      1.26447320
H       -7.4390716      2.72205520      1.73161554
H       -8.4712753      1.88536215      0.89103401
O       -6.9067258      4.10673332      2.80357957
H       -6.2272214      3.61997604      3.29590130
H       -6.4368462      4.62532139      2.13786340