36
 Ord_Energy   -117.3230970
O       6.22386122      -4.1032028      -23.575563
H       5.35719490      -3.9407978      -23.981992
H       6.67186928      -3.2510626      -23.540824
O       4.52719498      -6.7729663      -21.161100
H       4.82093287      -5.9086790      -20.843935
H       5.07275915      -6.9625678      -21.935283
O       5.26391888      -4.0492954      -20.920957
H       5.51626062      -3.1693353      -20.617153
H       5.64447021      -4.1345868      -21.807079
O       5.97831917      -6.8607564      -23.627300
H       6.20030689      -5.9155893      -23.655965
H       6.72221470      -7.3281712      -23.999303
O       2.65151668      -3.6451780      -21.915060
H       3.50580311      -3.7866673      -21.482164
H       2.23183942      -4.5132112      -21.956314
O       1.99974608      -6.4015803      -22.119487
H       1.35660923      -6.9918370      -21.736057
H       2.85717678      -6.6133918      -21.708829
O       3.30532146      -0.8685448      -21.839138
H       4.10429668      -0.9435039      -21.305170
H       2.88289094      -1.7370325      -21.800659
O       4.53696203      -0.9897413      -24.335601
H       4.02236652      -0.7904962      -23.538717
H       4.18500233      -1.8263238      -24.665254
O       6.98550224      -1.3651019      -23.307666
H       6.13141680      -1.1668554      -23.737983
H       7.65271235      -0.8721478      -23.776939
O       3.30626559      -6.4022679      -24.696418
H       2.75280070      -6.4817566      -23.908706
H       4.18037891      -6.7119278      -24.431003
O       3.66850877      -3.6698410      -24.547044
H       3.48350191      -4.5810408      -24.814952
H       3.23257113      -3.5573988      -23.690240
O       5.96921539      -1.3265664      -20.688421
H       6.44251299      -0.7258120      -20.117679
H       6.39848566      -1.2842525      -21.557767