21
 Ord_Energy   -56.8899803
O       30.4948311      0.97909087      -3.1825568
H       29.7769394      0.84378636      -2.5684025
H       30.3455162      1.84549582      -3.5907292
O       33.3375244      0.87704754      -2.9288520
H       32.3731499      0.81976390      -2.9264218
H       33.5923157      0.93268776      -3.8584744
O       33.7917671      3.50254989      -2.1793901
H       34.4832878      3.59199810      -1.5290943
H       33.6815033      2.54774809      -2.3231182
O       33.8056335      1.49090707      -5.7135911
H       33.6045876      2.40917921      -5.4558687
H       34.6032867      1.51886690      -6.2343769
O       33.0252914      3.93746543      -4.8133006
H       32.0631905      3.88186479      -4.8000087
H       33.3082123      3.93771648      -3.8861305
O       30.2226181      3.21288919      -4.9189930
H       29.5213184      3.69222331      -5.3524475
H       30.4644470      2.47597122      -5.5081319
O       31.0776806      0.88105136      -6.0756263
H       32.0399399      0.98863345      -6.0824432
H       30.8725986      0.46669045      -5.2303938