15
 Ord_Energy   -34.1042442
O       24.1864567      17.3087349      -1.4061180
H       24.8634129      16.7850647      -0.9498248
H       24.2184200      17.0425186      -2.3214826
O       25.1658859      17.5111809      2.30232620
H       24.5448627      16.7961140      2.49139595
H       24.6476612      18.1911564      1.84644008
O       23.6346264      19.1415138      0.62240613
H       23.7502270      18.5760632      -0.1578451
H       23.5638714      20.0337296      0.29207382
O       25.9759579      15.9328117      0.24062143
H       25.8562393      16.5553207      0.98155653
H       26.8526783      15.5693121      0.32746234
O       23.6445980      15.1178904      1.81600010
H       22.8632545      15.3503265      1.31469142
H       24.3700008      15.1510067      1.17842185