18
 Ord_Energy   -45.4308395
O       17.5833702      3.50295043      28.9064178
H       18.3394127      2.94079161      29.0547504
H       17.6135216      3.74805903      27.9682293
O       17.3739567      4.53058004      26.3061295
H       17.8581066      5.35370541      26.1907139
H       16.4630737      4.82426453      26.4392033
O       15.1427279      6.19710922      27.0542374
H       14.1908922      6.17928553      27.0737324
H       15.4457054      6.08940411      27.9758759
O       18.2615108      7.79956913      28.9798336
H       18.5413570      8.68703938      29.1917191
H       18.1040192      7.79125595      28.0237923
O       16.2521439      5.89377594      29.4922619
H       16.9560223      6.55705881      29.4926929
H       16.6950359      5.03376389      29.4561615
O       17.4780293      7.52893686      26.2811718
H       17.3931122      7.99538660      25.4532509
H       16.6005440      7.16171169      26.4796638