66
 Ord_Energy   -238.2729185
O       -3.9122411      1.12822586      1.31840289
H       -4.5436556      1.72954773      0.93315231
H       -3.9850090      0.29135816      0.82351008
O       -3.1360470      -1.2391617      6.45376338
H       -3.3928062      -0.6889463      5.70249904
H       -2.1997299      -1.4475594      6.33423943
O       -3.6682613      -0.0760561      3.87768101
H       -2.7151766      -0.2202595      3.78091528
H       -3.9143293      0.44359340      3.10351005
O       1.96536149      -3.0477918      4.79203833
H       1.94657856      -3.0383751      3.81986796
H       2.85054788      -2.8041823      5.05070551
O       -4.3111028      -3.6618120      6.12088496
H       -3.9377257      -2.7892528      6.34274502
H       -4.8137528      -3.9472473      6.87874823
O       -0.5973767      -2.2462427      5.63958913
H       -1.0858440      -3.0154152      5.31016033
H       0.33600918      -2.4449565      5.49645884
O       0.60143573      -5.5820062      4.58512340
H       1.11146132      -4.8004826      4.82950001
H       -0.3268564      -5.3466154      4.71804280
O       -5.1444305      -2.4636474      3.65860299
H       -4.6680156      -1.6247255      3.72452668
H       -4.9705176      -2.9385506      4.47861491
O       -1.0400256      1.20496751      1.30663036
H       -0.8742776      0.77320292      2.15564355
H       -1.9990894      1.29325929      1.24986509
O       1.49068032      -6.1198973      2.09031988
H       1.13605376      -6.0251395      2.99299514
H       2.10906738      -6.8451376      2.11260857
O       0.11280030      -3.9952640      -1.7475284
H       -0.1522105      -4.6258340      -1.0534668
H       0.20680446      -4.4971526      -2.5524550
O       -0.6037787      -5.6728635      0.24617029
H       -1.3498439      -5.4326618      0.81100434
H       0.10651336      -5.9351400      0.84475372
O       -0.8577036      -2.4595740      1.65317503
H       -1.0264640      -2.2026872      0.73811353
H       0.05606377      -2.7639407      1.72791183
O       -2.5266221      -4.5935616      2.00893120
H       -3.4065462      -4.3466012      1.69902861
H       -1.9689780      -3.8043813      1.91476434
O       1.80659986      -3.3106264      2.05550186
H       1.78522843      -4.2708493      1.95156640
H       2.01882171      -2.9148944      1.19634925
O       -5.0177766      -3.5673355      1.22596665
H       -5.8506662      -3.9713087      0.99883793
H       -5.1271167      -3.1691603      2.11048764
O       1.94621973      -2.2156312      -0.4257233
H       1.53358099      -1.3472324      -0.5095256
H       1.41436833      -2.8216160      -0.9576634
O       -0.9522697      -0.4847028      3.52434291
H       -0.9664822      -1.1609891      2.82840486
H       -0.7416412      -0.9604300      4.33645169
O       0.43859331      0.23289316      -0.7385978
H       0.75343813      0.96358834      -1.2640677
H       -0.0496017      0.62053779      0.01045232
O       -1.4541886      -1.8003012      -1.0238082
H       -1.0002258      -2.5637360      -1.4039244
H       -0.8473433      -1.0489439      -1.0748257
O       -2.0011599      -4.5281200      4.74791991
H       -2.8143546      -4.3809802      5.24591240
H       -2.2493549      -4.6086527      3.81608664
O       -4.0043314      -1.2112122      -0.0247270
H       -3.1742836      -1.4429449      -0.4620832
H       -4.3646521      -2.0284225      0.33852689