84
 Ord_Energy   -312.8542129
O       1.55228917      -2.3802213      -0.9850556
H       1.86560522      -1.6226817      -0.4748761
H       0.91039710      -2.8381626      -0.4295271
O       -1.2264415      3.06456448      1.05786686
H       -1.8926308      3.29073491      0.39021272
H       -1.6579928      2.89005061      1.90349524
O       -2.1807564      2.17431205      3.54950520
H       -2.6362931      2.57673141      4.28418712
H       -2.5824792      1.29706205      3.41734739
O       0.85676401      -1.4610916      -3.4516430
H       1.10877693      -1.8788331      -2.6137818
H       1.64371493      -1.0382401      -3.8158126
O       -2.5806896      -2.7639571      -0.9033108
H       -2.7929577      -2.7474933      -1.8426709
H       -3.0203220      -2.0016709      -0.5046314
O       -3.0791516      -0.3401433      3.06711390
H       -3.4641745      -0.3939704      2.18214284
H       -2.2605452      -0.8501820      3.00241604
O       1.15403459      1.65137556      -5.6144769
H       1.87340465      1.09865407      -5.2851321
H       0.87615696      2.20078226      -4.8698782
O       -3.2893784      -2.5751978      -3.6862116
H       -2.5350932      -2.3989444      -4.2788786
H       -3.8243071      -3.2399047      -4.1111062
O       -3.4930287      -0.3778643      0.30836427
H       -4.0679786      0.24092463      -0.1582969
H       -2.5966906      -0.0200345      0.26270503
O       -3.1684310      1.79359922      -5.3276033
H       -2.4341814      1.45148445      -5.8544313
H       -2.8659066      2.60026182      -4.8922084
O       -3.5311893      0.15895174      -3.2223627
H       -3.5554019      -0.7815614      -3.4346722
H       -3.4816228      0.67575419      -4.0425044
O       -0.5622888      -1.3622678      2.30260650
H       -0.6140024      -0.7213650      1.57770029
H       -0.4870040      -2.2227019      1.87409446
O       3.08186810      -0.0103815      -4.3765725
H       3.19780575      0.45530565      -3.5274068
H       3.93786630      -0.3467007      -4.6263777
O       -2.9994912      3.45237348      -0.9876516
H       -2.7829335      3.68639307      -1.8970419
H       -3.7277631      2.82174365      -1.0445880
O       -1.0408084      0.54843576      -6.7267360
H       -0.2274740      0.94153371      -6.3628983
H       -0.9446315      0.55137916      -7.6756957
O       0.38808862      0.84044970      3.74747081
H       -0.4228160      1.36037213      3.77333417
H       0.14299773      -0.0241015      3.38913843
O       0.19424518      2.95637846      -3.3107999
H       0.89265340      3.29956711      -2.7401778
H       -0.1058729      2.10592011      -2.9550172
O       -4.9360895      1.40076440      -1.2929727
H       -5.8547660      1.47425466      -1.5367341
H       -4.4794687      0.95724096      -2.0316579
O       2.26863586      3.90384725      -1.7029604
H       2.76660967      4.71089462      -1.7986694
H       1.98937522      3.85398357      -0.7703858
O       -1.2109233      -1.8952230      -5.2317884
H       -0.4296312      -1.8544228      -4.6611200
H       -1.1873135      -1.1036260      -5.7814285
O       1.47382902      3.68501487      0.84242126
H       0.52131285      3.56344162      0.95950291
H       1.90887061      3.07261565      1.44682466
O       -0.7462569      0.50335829      0.21378967
H       -0.8645980      1.41770236      0.50954111
H       -0.7638535      0.48817545      -0.7551306
O       2.63047908      1.68679665      2.52155119
H       1.84752540      1.40330022      3.02789892
H       3.35431787      1.73994049      3.13929661
O       3.25568107      1.26267101      -2.0236849
H       3.01955256      2.19310069      -1.9350467
H       2.90627103      0.82299573      -1.2374790
O       -0.4910275      -3.6001015      0.59443925
H       -1.2472748      -3.3417892      0.03631101
H       -0.5632083      -4.5401550      0.73609924
O       -2.2618027      4.01906876      -3.7415913
H       -1.3440383      3.71993429      -3.6174762
H       -2.2177004      4.92474660      -4.0391579
O       2.08254051      0.11678287      0.25151994
H       2.40644872      0.57273348      1.03803542
H       1.13298187      0.28904172      0.22035839
O       -0.8210775      0.52056088      -2.4909562
H       -0.2705903      -0.1867123      -2.8559123
H       -1.7340995      0.38035944      -2.7710054