63
 Ord_Energy   -226.9420010
O       5.50152397      4.56698895      3.77940559
H       4.85781479      5.12487078      3.33131385
H       5.01020718      4.01171732      4.40278053
O       0.93577993      8.23571968      8.42792034
H       0.19793510      8.42241096      9.00154972
H       1.15477979      7.29254818      8.55008602
O       4.66999483      11.1400499      7.24994755
H       4.85256863      11.9551735      7.70900822
H       5.51608992      10.6565266      7.18728399
O       3.57194972      6.35553837      2.57275367
H       3.36290646      6.32604504      1.64321768
H       3.90099525      7.25337648      2.76012397
O       5.31518221      7.40774059      10.2238760
H       4.73459721      7.97010422      9.69234085
H       6.19935417      7.51255894      9.85246372
O       3.07657838      10.6248732      5.02599049
H       2.83489442      11.4577360      4.62540483
H       3.65080690      10.8365431      5.77788115
O       1.10421205      8.63079262      5.61022377
H       0.97606915      8.57725430      6.56590366
H       1.73706555      9.34099007      5.44885540
O       6.45298529      7.90538406      5.03496504
H       7.05559301      7.19117212      4.79685497
H       5.75308800      7.50378609      5.57481909
O       4.15902376      3.14544678      5.74705505
H       3.23265743      3.29502106      5.96421719
H       4.64998960      3.48381186      6.50922108
O       1.49561882      4.03609657      6.43343163
H       0.70174867      3.62523365      6.10016870
H       1.67954993      4.79896784      5.85585594
O       5.34195995      4.58081150      7.83201408
H       5.02489805      5.37558413      7.37423038
H       4.92458534      4.58833504      8.70063114
O       6.90465355      9.69350147      7.09389496
H       7.24828529      9.11730480      7.78707695
H       6.85799885      9.14357853      6.29860878
O       2.15259051      6.21076155      4.96179724
H       2.55904508      6.21660376      4.08650780
H       1.70872343      7.06106043      5.10238314
O       3.65736103      8.80216694      8.47310066
H       3.90243363      9.66497231      8.12023258
H       2.69393420      8.74248123      8.50888729
O       7.84230804      7.76391459      8.95338440
H       8.66599178      7.81241512      9.43163013
H       7.90083647      6.97639608      8.38243866
O       4.49364614      8.79098129      3.29149938
H       3.99105191      9.41521072      3.82516909
H       5.27253675      8.55732346      3.81810951
O       7.90972090      5.55144978      7.40328550
H       7.08825207      5.08188486      7.60696077
H       7.99947023      5.51944971      6.44395208
O       4.00134039      5.05210209      10.2701883
H       4.49055910      5.89348650      10.3275175
H       4.06442499      4.63665485      11.1257095
O       7.88284159      5.55199623      4.54369974
H       7.04269743      5.14526701      4.25955963
H       8.55583572      5.23133373      3.95033765
O       4.39683008      6.86675406      6.56390190
H       4.12255955      7.51668072      7.22331238
H       3.62607050      6.63356447      6.03140974
O       1.66516292      5.66676378      8.75526428
H       2.42859149      5.41971397      9.29105186
H       1.61187887      5.03027916      8.03178978