87
 Ord_Energy   -325.1758739
O       -0.0368244      -0.7659997      -0.3701722
H       0.71558086      -0.2671453      -0.0258540
H       0.22002863      -1.6979673      -0.3709055
O       0.90319154      3.16404882      2.09507213
H       1.85487625      3.16856832      1.92488309
H       0.73225635      2.40561035      2.66463020
O       -2.9397796      2.21841742      0.12727989
H       -3.5138686      2.75897341      0.66379172
H       -2.6175116      1.49687015      0.69529184
O       4.16512548      -1.3223033      0.23628285
H       3.90477656      -1.1910977      -0.6882749
H       4.81794707      -0.6393555      0.43629183
O       -1.9365453      -1.3268740      -2.2216270
H       -2.2348507      -2.1316439      -1.7820071
H       -1.2200566      -0.9852928      -1.6617499
O       0.45102595      0.44491050      3.16022540
H       1.06602882      0.42272042      2.40903278
H       0.42148883      -0.4695716      3.46696924
O       -3.0457593      1.25659240      -2.5186235
H       -2.7828582      0.33109232      -2.4431547
H       -3.1129522      1.59453265      -1.6165471
O       3.19789172      -0.6594715      -2.2955402
H       3.79999891      -0.3183698      -2.9686125
H       2.57439097      0.05551930      -2.1008842
O       1.49434881      -2.7345027      -3.1015974
H       0.87519444      -2.3126073      -3.7062239
H       2.14086621      -2.0545344      -2.8642830
O       3.42291453      3.47162732      -1.6491062
H       2.79591702      2.75098483      -1.8176480
H       3.21662955      4.14531542      -2.3059233
O       -2.2924084      -3.6248874      -0.5766924
H       -2.8751296      -4.3786644      -0.5402136
H       -2.2205821      -3.2859515      0.33429410
O       -1.7817396      0.21180215      1.52519285
H       -1.1477155      0.41613392      2.22589605
H       -1.2450591      -0.1674230      0.81089375
O       -1.9754485      -2.5786830      1.91521981
H       -1.1692269      -2.6545596      2.44052696
H       -2.1478624      -1.6297827      1.86856842
O       -0.0848971      4.50357302      -2.8063107
H       -0.1201333      4.10102671      -1.9284546
H       -0.7375935      4.03462363      -3.3392993
O       2.26778288      -3.0448686      1.50261623
H       1.73642917      -3.3376255      0.74813686
H       3.03534071      -2.5931110      1.13349597
O       0.46343841      -2.4131833      3.42950600
H       0.65736209      -2.9488975      4.19459659
H       1.14688211      -2.6237020      2.76784252
O       2.94924070      2.41098660      -5.0668422
H       2.07181265      2.00469964      -5.0576481
H       2.83224592      3.29925219      -4.7101824
O       -0.2452075      2.97817981      -0.4246882
H       -1.1744033      2.76556276      -0.2845938
H       0.14518991      3.11112188      0.45140889
O       5.77053129      0.99448061      0.65362439
H       6.64278735      1.07791234      1.03015269
H       5.83449397      1.29743626      -0.2709336
O       5.74584750      1.93842810      -1.8775421
H       5.59087248      1.45076708      -2.6943862
H       5.02237949      2.57929002      -1.8276202
O       0.42007875      1.27760411      -4.6237676
H       -0.3675095      1.83751572      -4.6189776
H       0.12127840      0.36208989      -4.6903133
O       4.80774649      0.62188438      -4.2192855
H       4.17465000      1.28535782      -4.5478713
H       5.26830056      0.28211477      -4.9817193
O       3.52418114      2.76244259      1.03067912
H       4.33433905      2.23919345      1.06583832
H       3.49831989      3.16700552      0.15105543
O       -1.8660901      2.86371732      -4.3287306
H       -2.5262907      3.18179594      -4.9384364
H       -2.3273144      2.29550382      -3.6852679
O       2.08679038      0.36858998      0.94920141
H       2.50396070      1.23767462      0.91124195
H       2.78139004      -0.2856035      0.80467959
O       1.49762762      1.52689844      -2.0481392
H       0.84221959      1.92506922      -1.4593088
H       1.10941733      1.48751023      -2.9317630
O       0.56819562      -3.4921060      -0.6520965
H       0.89366529      -3.3426946      -1.5544798
H       -0.3644000      -3.7274061      -0.7041568
O       2.39909624      4.94570744      -3.7995926
H       1.49242061      4.82817244      -3.4620081
H       2.45808119      5.84089227      -4.1214354
O       -0.5637359      -1.3599999      -4.6009620
H       -1.1114143      -1.3804878      -3.7980744
H       -1.0499416      -1.8230850      -5.2791095