24
 Ord_Energy   -70.0696640
O       3.31153083      1.70420527      -1.4685823
H       3.65998197      1.76426828      -0.5653280
H       2.69510722      2.43889380      -1.5532141
O       -0.0280650      1.56439531      2.05838823
H       0.51744181      2.36217165      1.97205758
H       -0.5705832      1.68465567      2.83406210
O       1.77493048      -0.5352385      -1.2572255
H       2.02913451      -1.2257936      -1.8628598
H       2.38681817      0.20845097      -1.4050939
O       -0.2879796      1.33504319      -0.7794522
H       -0.3746937      1.32017648      0.18199305
H       0.30162755      0.60175484      -1.0032813
O       2.12121248      -0.3299227      1.59843397
H       1.99669743      -0.5537126      0.66729540
H       1.34130812      0.18043534      1.84654963
O       3.82999396      1.87384391      1.25738335
H       3.37222171      1.04890358      1.47932839
H       3.20573235      2.57404327      1.47221899
O       1.10405743      3.61279678      -1.2466726
H       0.54421502      2.81898403      -1.1613366
H       0.74698430      4.12686682      -1.9655672
O       1.58879602      3.78288698      1.48232687
H       1.46032262      3.81755042      0.51994866
H       1.75685883      4.67710733      1.76967287