63
 Ord_Energy   -227.1552280
O       -1.0099247      -9.2025718      3.94522405
H       -0.6638412      -8.7708625      4.73594999
H       -1.6667332      -8.5962600      3.57663965
O       3.06691909      -4.0303635      1.84966850
H       3.14852452      -4.7818694      1.25634778
H       2.37583089      -3.4572267      1.48177958
O       2.84147954      -4.0093517      4.51979685
H       3.50452709      -3.4304189      4.88470507
H       2.98023653      -4.0234723      3.55421257
O       -3.9094674      -5.4235138      4.34194708
H       -3.1414563      -5.4259328      4.94349241
H       -4.6878690      -5.3568067      4.88729906
O       -1.6721334      -5.4746933      5.82844019
H       -1.0615054      -4.8595118      5.39703369
H       -1.1628314      -6.2751822      5.99967384
O       -0.2686271      -4.8429341      -0.1874535
H       -0.2488908      -5.2213335      0.70596397
H       0.21859965      -5.4468331      -0.7566045
O       -3.0608265      -4.9747300      -0.0945541
H       -3.1853492      -5.9285574      -0.1309907
H       -2.1175677      -4.8383884      -0.2632799
O       3.27378058      -6.4279165      0.18390930
H       2.59047651      -6.5434680      -0.4953811
H       4.11540461      -6.5549559      -0.2481320
O       -0.1851949      -5.9139194      2.37812304
H       -0.0966872      -5.2206025      3.04537964
H       0.58885348      -6.4864568      2.44480801
O       -3.1073191      -7.8864321      0.13142841
H       -2.9903149      -7.7024292      1.08033514
H       -3.9047431      -8.4031820      0.04784884
O       -2.5762972      -7.2431769      2.71336937
H       -3.1487076      -6.6885399      3.25703430
H       -1.7505458      -6.7501997      2.58118320
O       0.05232679      -3.9071803      4.32650137
H       1.00650775      -3.8293001      4.44999599
H       -0.2638827      -3.1238563      3.85723734
O       0.56041342      -9.9172382      1.88512111
H       -0.0168195      -9.7190113      2.64574242
H       0.77524906      -10.844510      1.93680286
O       0.95712233      -2.5624790      0.86139751
H       0.51078528      -3.2590043      0.35986504
H       0.29405111      -2.2246644      1.47446215
O       -0.4227486      -8.5886983      -0.4313431
H       -1.3541282      -8.3725366      -0.2965330
H       -0.1354570      -9.0930481      0.33912677
O       -3.1265025      -3.5483007      2.29742885
H       -3.4557137      -4.1396546      2.98227668
H       -3.1914165      -4.0261573      1.45800650
O       2.06454539      -7.6112308      2.42378187
H       1.65881515      -8.4552745      2.18794966
H       2.55681920      -7.2855930      1.66022027
O       -1.0695455      -1.8861111      2.77213120
H       -1.8359589      -2.4539609      2.56684709
H       -1.4118006      -1.0096106      2.92309308
O       0.01547055      -7.7538209      6.16368341
H       0.22758924      -8.1162395      7.02000189
H       0.84204400      -7.3808436      5.80768538
O       2.27237797      -6.7530541      5.06080914
H       2.31159687      -7.1146001      4.16415930
H       2.52274847      -5.8254761      4.98081493
O       1.20897555      -6.8293657      -1.6125464
H       1.11476147      -6.9032230      -2.5582761
H       0.62430018      -7.5018925      -1.2149068