75
 Ord_Energy   -276.9652710
O       19.3677406      9.78666782      -7.3009810
H       19.5070496      10.4403667      -6.6210961
H       20.0550709      9.93123722      -7.9767212
O       17.8044624      4.99161768      -9.9798059
H       17.1430035      4.79897976      -10.653290
H       18.1990433      5.84848547      -10.205210
O       18.0197372      4.81328487      -13.710198
H       17.2412167      4.68993807      -13.142572
H       17.9023857      4.23884296      -14.463295
O       18.4907284      7.57221413      -13.443156
H       18.3016911      6.64729977      -13.644985
H       17.6761189      8.08178234      -13.536813
O       22.5287361      6.60420513      -12.511212
H       23.3467503      6.24386787      -12.841152
H       21.8707752      5.88416433      -12.543142
O       15.8780184      4.72376633      -11.995975
H       15.6165428      5.65473413      -11.919063
H       15.1959343      4.20960093      -11.545958
O       20.9839287      8.82701588      -13.377344
H       21.5928574      8.11556530      -13.146536
H       20.1285839      8.40265942      -13.530697
O       21.3413029      5.73504066      -7.8393130
H       22.1708794      5.65397787      -7.3747119
H       21.4971485      6.33756256      -8.5865516
O       14.1786022      4.67943192      -7.9786739
H       15.0572491      4.97684145      -7.7046952
H       13.6120844      5.45895147      -7.9380626
O       21.5315495      7.38712454      -10.012002
H       22.0063267      7.13841963      -10.813790
H       20.5884590      7.39308500      -10.241124
O       18.8460407      7.46098900      -10.660749
H       18.7454414      7.55752087      -11.616601
H       18.3964481      8.20032787      -10.232255
O       19.0122089      6.99099779      -6.7111983
H       19.7962933      6.52898312      -7.0322423
H       19.1693325      7.93041563      -6.8607697
O       17.4811115      9.54299450      -9.3473682
H       18.0317268      9.67389584      -8.5653123
H       16.6764107      9.07718658      -9.0815429
O       21.1620216      10.0632420      -9.2963752
H       21.4425049      9.16421413      -9.5158329
H       20.9573460      10.4853868      -10.139323
O       16.2299118      9.23649120      -13.317404
H       15.7741289      9.74568939      -13.981823
H       16.7542610      9.86600780      -12.787376
O       20.6728992      4.66972065      -12.449326
H       19.7913094      4.64798689      -12.831459
H       20.6006927      4.31950855      -11.547985
O       12.5957165      6.16613960      -10.921922
H       13.3482008      6.63477850      -11.308660
H       12.8703547      5.24272013      -10.862921
O       15.3388662      7.89856148      -8.8620309
H       14.4123983      7.79482508      -8.6155548
H       15.8277664      7.19604874      -8.4065713
O       15.0794926      7.32619524      -11.601816
H       15.2425356      7.57171631      -10.680360
H       15.4166002      8.03004169      -12.167967
O       20.5698929      11.0565996      -11.906666
H       20.7613220      10.2679100      -12.445782
H       21.0391941      11.7824430      -12.309928
O       16.7018642      5.83835983      -7.6250519
H       17.4503269      6.23385096      -7.1558752
H       17.0786076      5.42460823      -8.4161357
O       12.6780071      7.11774635      -8.3685951
H       12.5280857      6.81258154      -9.2812089
H       11.8462896      7.45532846      -8.0484008
O       17.7392883      10.8190470      -11.773944
H       18.6874180      10.9729204      -11.859288
H       17.6027298      10.4930410      -10.872311
O       20.3362255      3.86264777      -9.8198823
H       20.7278690      4.35420752      -9.0898637
H       19.3980045      4.10112524      -9.8080234
O       13.8373985      3.60364556      -10.446559
H       13.9948854      3.92604971      -9.5404758
H       13.4539137      2.73473907      -10.363824