24
 Ord_Energy   -68.3609695
O       0.33988079      3.34036350      -5.0464797
H       0.32627553      4.28996897      -4.9640221
H       0.96373701      3.01377010      -4.3735618
O       0.48587573      -0.5330789      -5.3379383
H       0.60053909      0.06858794      -6.0876116
H       1.32982469      -0.5281980      -4.8720622
O       2.86509132      -0.3250420      -3.6975770
H       2.41057396      -0.7246425      -2.9362428
H       3.71538115      -0.7512475      -3.7658293
O       1.92848313      2.29436374      -3.0863375
H       2.37759376      1.48536313      -3.3646667
H       1.31091535      2.01582336      -2.3992071
O       -1.2108438      1.14683354      -3.9247896
H       -0.9253181      1.96927643      -4.3377871
H       -0.7295243      0.45098582      -4.3998704
O       -0.1472432      1.11375022      -1.4443237
H       -0.6137607      1.10546100      -2.3008091
H       -0.7360190      1.51330173      -0.8104823
O       0.74091476      1.55992889      -7.1983838
H       0.20263362      1.82221425      -7.9420075
H       0.61485046      2.24580479      -6.5252227
O       1.32582462      -1.2512706      -1.6224870
H       0.70278186      -1.9696788      -1.7145841
H       0.79188466      -0.4577853      -1.4601134