84
 Ord_Energy   -312.7118625
O       2.10196731      4.34793023      4.19277569
H       2.46321786      4.23665655      5.07817979
H       1.14729753      4.24278602      4.30665029
O       -1.9018423      2.82620228      2.42985671
H       -1.4371138      3.17012172      3.20589799
H       -1.2174790      2.61412683      1.78283512
O       2.49213915      -1.3542948      3.35287837
H       2.32540496      -1.7835928      4.19902305
H       1.64896510      -0.9600364      3.07948973
O       0.80032489      -3.5962846      1.29044383
H       1.63777622      -3.2235915      0.98817407
H       0.11273461      -3.0988378      0.83237535
O       1.59401479      -2.5599528      5.69881014
H       0.81737339      -2.0629731      5.98985836
H       1.26836730      -3.2885242      5.15349774
O       -3.6092241      1.00960529      3.41452696
H       -3.0227308      1.68532317      3.02655056
H       -4.5038943      1.31072300      3.27969608
O       2.92222440      3.59879091      6.91607318
H       3.24194815      2.76985230      6.52100297
H       3.66625318      3.99117917      7.36710342
O       -2.3437861      -1.2689421      2.41169229
H       -2.2439186      -1.8664518      3.16974445
H       -2.8759115      -0.5175314      2.70347604
O       -0.6162403      -1.0046395      6.66335130
H       -1.3805783      -0.4238784      6.50139603
H       -0.2454324      -0.7666528      7.52284478
O       4.34321192      0.65006873      3.08944347
H       3.71210069      -0.0737283      3.23050337
H       4.86239444      0.39616132      2.31831331
O       1.18557854      -0.2686880      -0.5005751
H       1.85194953      -0.8435189      -0.0978344
H       0.36044684      -0.7669947      -0.4530843
O       0.86969061      -0.0653261      8.86451526
H       1.70051870      -0.3532781      8.44472033
H       0.90623647      -0.3514030      9.77365334
O       5.32237328      -0.2118118      0.54411192
H       6.15508779      -0.1908604      0.08059325
H       4.74392895      0.44342089      0.11301836
O       0.32100198      1.94925146      0.95794967
H       1.13829639      2.32010613      1.32488779
H       0.57800005      1.26771638      0.32235790
O       3.47753918      1.23172604      5.67511787
H       3.96332395      1.11605578      4.84965140
H       2.53252277      1.16822061      5.45781183
O       3.49626748      1.53072987      -0.4500914
H       2.69770989      1.04304948      -0.6822161
H       3.25472694      2.11581694      0.28063491
O       2.73751366      2.73324597      2.03548185
H       2.57152586      3.38443146      2.73253686
H       3.29104082      2.04590018      2.42787086
O       3.03342609      -0.8900394      7.47400169
H       2.71667707      -1.5977742      6.89781301
H       3.34599675      -0.1858816      6.89019278
O       -2.5701904      0.74410364      6.08640890
H       -2.9483557      0.84075013      5.20473863
H       -2.4476914      1.63312204      6.44205073
O       -1.1402020      -1.8954437      0.01427032
H       -1.6385648      -1.6660523      0.81642918
H       -1.7803069      -2.1992523      -0.6253492
O       -0.5020753      3.48877800      4.74696274
H       -0.0331616      2.65807434      4.91811217
H       -1.0610282      3.62976182      5.51950602
O       0.15223413      -0.0942089      2.79750193
H       -0.7071429      -0.5227017      2.72073363
H       0.17985530      0.62605815      2.15388248
O       -1.7620271      -2.7700239      4.60410991
H       -1.4715221      -2.2719778      5.37533848
H       -1.0529546      -3.3913395      4.39391667
O       -1.9207861      3.30842881      7.16422130
H       -1.0651524      3.11614170      7.59060791
H       -2.3893397      3.90319219      7.74302400
O       3.07708172      -1.9749585      0.74981051
H       3.92566348      -1.5508445      0.57898600
H       2.91341136      -1.8493398      1.69809699
O       0.50009150      2.70605158      8.20366598
H       1.30525869      3.03878747      7.78868165
H       0.67194248      1.79418092      8.46646239
O       0.46680344      -4.3864200      3.88180795
H       0.60717324      -4.1039264      2.96110972
H       0.47576072      -5.3402850      3.87724388
O       0.77256795      1.03038547      5.17817644
H       0.31596573      0.45470353      5.79997153
H       0.55657703      0.67921845      4.30144407