36
 Ord_Energy   -117.4281010
O       1.73781192      -0.4182100      -20.108930
H       1.15703106      0.27704066      -19.809049
H       2.63964510      -0.1544703      -19.866579
O       3.05068350      -3.7487759      -22.474929
H       3.07083774      -4.7131514      -22.484853
H       3.96769929      -3.4613924      -22.350898
O       5.65139866      -5.3090982      -18.601070
H       6.27251673      -5.7997303      -18.070097
H       5.87571621      -5.4846859      -19.533195
O       5.63982725      -2.9061851      -21.803823
H       5.45743942      -2.8333702      -20.857626
H       5.59255314      -2.0011508      -22.144594
O       5.03821278      -0.2787668      -22.345089
H       4.14212561      -0.4238078      -22.684825
H       4.92053032      0.00374843      -21.432542
O       3.38433623      -6.5092487      -21.953384
H       3.15513468      -6.3847184      -21.015142
H       3.00139403      -7.3391060      -22.224329
O       2.19896984      -3.1964924      -19.887002
H       2.40642786      -3.3941760      -20.813787
H       1.84471965      -2.2997980      -19.873630
O       6.03920269      -5.6372113      -21.270753
H       5.23320866      -6.0302252      -21.628004
H       6.07353592      -4.7355318      -21.619350
O       2.38386655      -0.9954538      -22.905674
H       2.01507187      -0.7818623      -22.041038
H       2.46145844      -1.9581326      -22.927566
O       4.42985487      0.01911748      -19.457674
H       4.95735788      0.57760662      -18.891790
H       4.66982222      -0.8987667      -19.245103
O       2.91375566      -5.8835191      -19.332471
H       2.50564861      -5.0079159      -19.363475
H       3.78330421      -5.7585978      -18.932670
O       4.80972195      -2.6812667      -19.082983
H       3.88468027      -2.8804912      -19.294839
H       5.19509792      -3.5044519      -18.758632