24
 Ord_Energy   -68.6143265
O       1.02258670      7.69323301      4.71822500
H       0.50045735      8.44722939      4.97739506
H       1.51056278      7.95249271      3.91642880
O       1.30419445      3.67905474      5.76879692
H       0.60857469      3.20750380      6.21927834
H       0.88939554      4.08482742      4.98846865
O       5.18647575      8.05415916      3.13144469
H       5.11264563      7.11783695      3.36823702
H       5.68258238      8.46189117      3.83836889
O       2.60072803      5.32509422      1.82689607
H       3.32951260      5.26283550      2.46420717
H       2.88880324      4.87556362      1.03599596
O       2.46484566      8.13141823      2.45753908
H       3.40448022      8.27720165      2.63612461
H       2.41619635      7.25958776      2.04714465
O       2.96561933      5.90116978      5.81519842
H       2.33412600      6.58871889      5.56947231
H       2.44137836      5.09664106      5.94629955
O       0.35240781      5.12046576      3.61540532
H       0.41429862      6.00472784      3.99978876
H       1.01878989      5.10106325      2.91759706
O       4.62917423      5.34989595      3.78134656
H       4.06070852      5.54952669      4.54889774
H       5.20551538      4.63768721      4.04439592