15
 Ord_Energy   -36.8050499
O       22.6740341      18.3313313      2.36740112
H       21.7252140      18.4233017      2.37449765
H       23.0261517      19.1850681      2.66908669
O       24.7526226      16.7118549      1.58136582
H       24.4417934      16.1843834      0.85018462
H       23.9932823      17.2477150      1.86500895
O       23.7644501      20.7165985      3.20218277
H       24.6769295      20.7587051      2.87089109
H       23.7598801      21.2231483      4.01032400
O       26.3569565      20.7128773      2.28660369
H       26.6518478      19.7873192      2.26463723
H       26.8289013      21.1527119      1.58408201
O       27.0686131      18.0584869      2.19903517
H       27.5831184      17.4852066      2.76154542
H       26.2728043      17.5532722      1.96322060