66
 Ord_Energy   -238.1175570
O       20.1825179      7.44006456      -10.988477
H       20.4070310      7.14951806      -10.108395
H       19.2135409      7.40707157      -11.042121
O       17.5613941      10.3363165      -11.216425
H       17.5603183      9.37148006      -11.149405
H       18.1837642      10.5677256      -11.919848
O       12.6149145      7.74878446      -13.470875
H       13.2102546      6.99238327      -13.409535
H       12.7031504      8.21909005      -12.631011
O       16.9121481      6.79478619      -13.988633
H       16.3511111      7.46074571      -14.415349
H       17.7890655      6.90954637      -14.380960
O       14.5628591      5.63733870      -13.093676
H       14.4944296      4.70824605      -13.300847
H       15.4270981      5.93011816      -13.426259
O       13.8910731      12.7275193      -12.710649
H       13.4843053      12.4470403      -11.881151
H       14.5821607      13.3617034      -12.473878
O       17.8543990      10.1117461      -15.812412
H       17.0473915      9.60046782      -15.649758
H       17.5363130      10.9759110      -16.099940
O       17.4585585      7.55291893      -11.336719
H       17.3327613      7.31777027      -12.265833
H       16.6391646      7.30607796      -10.884162
O       16.4956744      12.5669221      -16.224054
H       16.4345063      13.1363239      -16.986771
H       15.5821961      12.3462507      -15.969819
O       19.2631975      7.68703236      -15.118992
H       19.9465192      7.99035119      -14.509704
H       18.9202392      8.48344460      -15.543842
O       17.7400145      13.2742390      -13.763193
H       17.3299808      13.0957761      -14.618840
H       18.3491593      12.5441564      -13.596711
O       12.8094162      9.34652251      -15.661278
H       12.6688589      8.79179832      -14.872655
H       12.1271303      9.11035101      -16.283920
O       15.3350923      10.3034617      -12.850437
H       14.9099273      11.1690826      -12.881788
H       16.1138597      10.3739749      -12.283362
O       13.9443932      12.0040537      -15.435297
H       13.7638382      12.3322207      -14.544402
H       13.5056996      11.1483685      -15.507886
O       14.9415797      6.87178846      -10.510517
H       14.3643547      7.64471656      -10.572254
H       14.7284760      6.33159503      -11.281498
O       21.0735269      8.80778111      -13.169223
H       22.0247836      8.76569401      -13.221983
H       20.8136607      8.31488150      -12.371682
O       16.0902331      14.2780987      -11.898184
H       16.2663614      15.2084545      -11.789576
H       16.7296634      13.9459855      -12.554646
O       15.9313239      12.2238062      -9.9186810
H       16.5620923      11.5540906      -10.215230
H       16.0708756      12.9876767      -10.492675
O       13.2579657      11.7694568      -10.094416
H       14.2128737      11.8931979      -9.9407263
H       12.8082212      12.1463387      -9.3431858
O       19.1528324      10.8515493      -13.440042
H       19.9082840      10.2618161      -13.328900
H       18.6979325      10.5623842      -14.244765
O       13.4319607      9.16025887      -11.186398
H       13.1982652      9.94978008      -10.686749
H       14.1261487      9.45136611      -11.797625
O       15.5103573      8.84733447      -15.121910
H       14.6379635      8.90473513      -15.524001
H       15.4586355      9.37956059      -14.309682