54
 Ord_Energy   -189.6771550
O       -10.231017      9.63430500      -0.3579209
H       -10.885000      10.2218361      0.01018898
H       -9.3902349      10.1258049      -0.3802113
O       -9.7661171      8.15570736      -2.7144815
H       -10.093488      8.69409847      -1.9838320
H       -9.4847135      7.31222963      -2.3292987
O       -3.8246989      9.01464081      -3.9575710
H       -2.9565825      9.35533142      -3.7570807
H       -4.1884479      8.69714737      -3.1168408
O       -6.1124339      9.04090405      -5.5283036
H       -6.3137989      8.09320259      -5.5628008
H       -5.2404494      9.11861134      -5.1174645
O       -7.7447137      10.7343397      -0.5263319
H       -7.1533989      10.1914806      0.00916507
H       -7.5377373      10.5164566      -1.4462248
O       -8.6616821      7.44924450      0.68476051
H       -9.3066759      8.12803364      0.45231050
H       -8.7366523      6.76904583      0.00169663
O       -7.3462677      9.54163361      -3.0386314
H       -8.1868648      9.06486607      -3.0173194
H       -7.0029463      9.49519920      -3.9388020
O       -5.3225412      8.16024017      -1.7478067
H       -5.4696526      8.28688431      -0.8030136
H       -6.0430698      8.63561249      -2.1915206
O       -7.4094033      3.78738403      -6.2127709
H       -7.0398235      3.13936734      -6.8056612
H       -7.2536692      3.46493459      -5.3065843
O       -9.6663007      7.39125919      -5.3787045
H       -9.8422832      7.71057940      -4.4826326
H       -9.4366626      8.16102886      -5.9186615
O       -6.3282566      5.76120710      -2.7736709
H       -5.8451447      6.48948622      -2.3643162
H       -6.5248217      6.03248835      -3.6825151
O       -7.0433297      6.43756199      -5.3837862
H       -7.0480594      5.57081938      -5.8077669
H       -7.9639372      6.73785448      -5.3615350
O       -6.2449202      8.67758274      0.85360980
H       -5.9140982      8.64345646      1.74692595
H       -7.0849723      8.18380642      0.84722871
O       -8.5773305      9.56009674      -6.7152671
H       -7.6563739      9.51185131      -6.4145817
H       -8.6343221      10.3344412      -7.2690267
O       -8.8275060      5.80790806      -1.5845409
H       -9.2820234      5.02427483      -1.9166278
H       -7.9282331      5.78150797      -1.9427707
O       -9.8939542      3.57247424      -2.8806028
H       -10.600709      2.95309901      -2.7213559
H       -10.033461      3.93698668      -3.7734201
O       -10.054002      4.60186195      -5.3859148
H       -9.2508258      4.30114651      -5.8281827
H       -10.064987      5.56514835      -5.4683752
O       -7.1294307      3.16305947      -3.5780255
H       -8.0337257      3.15933943      -3.2397611
H       -6.7030825      3.93631506      -3.1843411