69
 Ord_Energy   -252.5377108
O       12.9123059      10.4277838      -16.008537
H       13.4835145      9.82022385      -16.496272
H       13.4724396      11.1670384      -15.742523
O       16.1005531      6.10693546      -13.149091
H       15.2614844      6.13013604      -12.670197
H       16.7742959      6.51976205      -12.590475
O       17.1559106      10.1967812      -11.360630
H       16.3621995      10.4149919      -11.871134
H       16.8926999      10.1847984      -10.432494
O       17.1627685      11.5156464      -15.853602
H       17.2813018      10.8922069      -16.576793
H       17.7504774      11.2389641      -15.134246
O       13.9935143      5.86271795      -16.842006
H       13.4943105      6.01990210      -16.019476
H       13.5146781      5.19790170      -17.329169
O       13.6621275      8.92668530      -9.2355331
H       13.2808250      9.08233343      -10.109814
H       13.7299376      7.96860563      -9.1406769
O       13.6427762      6.44001545      -11.923678
H       13.7843732      6.19262348      -11.001517
H       13.4142932      7.38102072      -11.920277
O       14.9880338      10.5923021      -13.009680
H       15.3352205      9.87395622      -13.564331
H       14.8454017      11.3413056      -13.599088
O       17.1940969      9.45678804      -17.890284
H       16.2902047      9.15006420      -17.704618
H       17.2515402      9.59439733      -18.832262
O       14.2876385      6.11564853      -9.2213668
H       15.2257314      6.37907758      -9.2150599
H       14.1871351      5.43843669      -8.5582482
O       18.3083370      7.75236690      -15.931664
H       18.0896366      8.29185522      -16.699490
H       17.7868916      6.93440023      -15.982132
O       16.6823578      5.54603780      -15.826526
H       15.8136415      5.57080370      -16.243517
H       16.5114429      5.55061739      -14.873268
O       19.9295572      8.00587227      -13.772789
H       20.8239926      7.72948241      -13.953610
H       19.4207455      7.86384507      -14.590715
O       15.9544227      8.52917287      -14.500204
H       16.8437497      8.52697546      -14.873542
H       15.8620371      7.67985408      -14.048353
O       11.3757390      8.99302056      -14.301274
H       10.4586404      9.17841124      -14.484946
H       11.9002343      9.54245241      -14.910990
O       16.8255872      7.07826243      -9.2255327
H       17.3475627      7.10074682      -10.037914
H       16.7259802      7.99924146      -8.9533019
O       12.6371019      6.43918910      -14.574197
H       12.1525676      7.27267015      -14.531304
H       12.9302273      6.25742704      -13.672912
O       18.6992037      10.6170802      -13.721159
H       18.2619657      10.6093560      -12.860213
H       19.2556817      9.83066027      -13.733113
O       18.0122894      7.55930866      -11.739448
H       17.6936000      8.46790107      -11.631262
H       18.7608987      7.60902933      -12.345743
O       16.1748439      9.83437197      -8.7502104
H       16.1943636      10.3536351      -7.9510095
H       15.2449154      9.58717854      -8.9029014
O       12.9100778      9.14078663      -11.943157
H       12.2583240      9.12226492      -12.654366
H       13.6306345      9.70616628      -12.258542
O       14.7431608      12.4244691      -15.112139
H       15.6250629      12.1370655      -15.414508
H       14.7242532      13.3745230      -15.184006
O       14.7604017      8.54253514      -16.992066
H       15.1007896      8.56555847      -16.083188
H       14.4508410      7.63834220      -17.127760