66
 Ord_Energy   -238.1955559
O       -2.7338632      7.70855772      1.13490285
H       -3.2029061      8.27086781      1.76174078
H       -3.3285857      7.47525876      0.41025213
O       -2.6111357      3.69817727      5.46487819
H       -2.8811149      3.09311233      4.76267225
H       -3.4297951      4.04006259      5.84427225
O       -2.9093789      9.27985139      -1.9123731
H       -3.2857453      10.0759291      -1.5155029
H       -2.0176875      9.20601530      -1.5504470
O       -3.5994244      2.11135815      3.27483407
H       -3.4263538      1.20478330      3.03427207
H       -3.4765224      2.64284364      2.46964861
O       -4.0841043      6.82372380      4.40298337
H       -3.1502417      6.56799923      4.39035978
H       -4.5070838      6.29084044      5.08716327
O       -3.4130236      3.82425943      1.15348076
H       -4.0716643      4.45904190      1.47305403
H       -3.4271196      3.87593838      0.18683111
O       -6.5427863      7.48734439      0.40099558
H       -6.2867730      8.39669820      0.64288340
H       -7.4733835      7.50690463      0.19531886
O       -3.9602486      9.26090470      3.14354555
H       -4.0699749      8.49038446      3.71871491
H       -3.1828780      9.74937430      3.44303874
O       -5.1658095      4.88565966      6.13425886
H       -5.7485312      4.80644037      6.88419461
H       -5.5633646      4.36913285      5.41024957
O       -1.6044905      11.3434529      1.03860113
H       -1.1138586      10.6302151      0.60715422
H       -1.5588477      11.1625857      1.98440696
O       -5.6572238      9.92246950      1.07312422
H       -5.1294767      10.5073442      0.51651162
H       -5.1454650      9.79442976      1.88510209
O       -3.8694092      11.5267932      -0.4356258
H       -3.9769445      12.4168530      -0.7604586
H       -3.0729336      11.5288558      0.12560442
O       -0.0507113      8.27483224      3.71678091
H       -0.4714008      7.49187481      4.09816760
H       0.41330006      7.97314367      2.92815767
O       -5.3053939      5.61133834      2.16052450
H       -4.8846061      6.10850111      2.87566907
H       -5.7697427      6.23838502      1.59453441
O       -1.4433982      5.92523977      4.36280816
H       -1.3083941      5.67929687      3.43690413
H       -1.7098195      5.12047336      4.83111523
O       -0.6451606      8.98745908      -0.1392504
H       -1.4113915      8.59743280      0.31238835
H       0.10466229      8.46686538      0.16535192
O       1.00896258      7.09863163      1.28008262
H       1.83915704      6.63697105      1.19107405
H       0.31817803      6.41722321      1.33746746
O       -1.2212356      5.50368656      1.62035181
H       -1.7440336      6.31029466      1.47477073
H       -1.8215106      4.77555856      1.42299731
O       -6.0011362      3.52941418      3.93489832
H       -5.9454588      4.21185813      3.25178596
H       -5.2920029      2.90539269      3.73480580
O       -4.2418710      7.02191948      -1.1382949
H       -5.1147798      7.21836827      -0.7768812
H       -3.8651089      7.82586769      -1.5293665
O       -1.5412394      10.5223679      3.77455977
H       -1.2615969      11.0553665      4.51391968
H       -0.9678551      9.73457708      3.76372112
O       -3.4925114      4.39685477      -1.5124012
H       -3.7525269      5.33102970      -1.4506675
H       -3.2393249      4.25292978      -2.4200767