33
 Ord_Energy   -104.2164310
O       -2.6147677      0.55185252      14.2310896
H       -2.6008770      0.46407506      15.1944065
H       -3.3183524      -0.0313500      13.9245729
O       -7.5414710      -0.9370453      14.0162745
H       -7.6346731      -1.0681034      14.9689035
H       -7.8887782      -0.0529188      13.8393030
O       -4.7922682      -1.5431906      16.2851715
H       -4.8044033      -1.5096951      15.3232803
H       -5.7068243      -1.4002543      16.5658970
O       -3.5016412      3.09853959      13.8527784
H       -3.0741334      2.22827339      13.9463615
H       -2.8194739      3.71657920      13.6050243
O       -7.3526859      1.70187736      16.4124088
H       -7.6731410      1.87049294      15.5189190
H       -6.4568104      2.06821060      16.4578571
O       -5.6319551      1.76412678      12.5849094
H       -5.3207259      0.86314374      12.7189064
H       -4.9461474      2.33579350      12.9550838
O       -8.1312942      1.81946337      13.6497431
H       -7.2574248      1.89521980      13.2268496
H       -8.7335081      2.34883451      13.1344557
O       -2.9988291      0.35056147      17.0242958
H       -2.4933259      0.10191177      17.7930603
H       -3.6371631      -0.3669100      16.8617058
O       -4.9248986      -1.0248178      13.3658867
H       -5.8798236      -1.0217591      13.5647154
H       -4.7851390      -1.7076705      12.7134247
O       -7.4781713      -0.9416356      16.8518124
H       -8.0995826      -1.1432496      17.5449905
H       -7.4458932      0.03073976      16.7724018
O       -4.7244038      2.57914305      16.4251347
H       -4.3576836      2.89200401      15.5903940
H       -4.1267995      1.88402808      16.7265453