21
 Ord_Energy   -57.1900558
O       17.1157131      2.01135874      -5.1205372
H       17.4943619      2.51990962      -5.8481211
H       16.4434719      2.59077096      -4.7275939
O       18.7778091      3.25340819      -3.0691542
H       18.4583778      2.70785046      -3.7998607
H       18.1941528      3.03129673      -2.3326115
O       16.6827793      0.21550100      -3.0897765
H       16.8527908      0.70364934      -3.9130368
H       16.6469231      -0.7059972      -3.3304879
O       17.8975201      5.51179790      -4.3249425
H       18.3141079      4.79151106      -3.8184011
H       18.2544193      6.32729769      -3.9837946
O       18.0863323      4.05171394      -6.7616457
H       18.0358391      4.66632986      -6.0142350
H       17.7413158      4.52757931      -7.5139813
O       16.5794239      2.40634608      -1.4423475
H       16.5760708      1.56030035      -1.9238588
H       16.3029232      2.21324182      -0.5507825
O       15.5432034      3.86584949      -3.7366576
H       15.7652321      3.49897480      -2.8710324
H       16.1761036      4.57753897      -3.8922555