21
 Ord_Energy   -57.0433693
O       32.7681923      4.20451117      -5.3248515
H       32.3260651      4.62041092      -4.5703573
H       33.5711327      3.80600882      -4.9627852
O       31.0684147      2.23046446      -6.0121145
H       30.4035358      2.55370951      -6.6131320
H       31.6828976      2.96956015      -5.8444790
O       31.4139729      4.91187096      -2.9862043
H       30.7107048      5.38208818      -2.5463087
H       31.1941128      3.96880770      -2.9057521
O       30.9081879      2.18408298      -3.1085622
H       31.7037811      1.66506660      -2.9400324
H       30.7789459      2.13977957      -4.0641598
O       32.7484779      0.04707906      -5.6862001
H       32.1211891      0.76034671      -5.8865242
H       33.3308945      -0.0089598      -6.4406766
O       34.8647385      2.89676189      -3.9589450
H       35.2606049      3.34588218      -3.2141268
H       34.4033585      2.13138366      -3.5868954
O       33.3586006      0.64744341      -3.0904743
H       33.5196648      -0.1326869      -2.5660617
H       33.1684608      0.34124839      -3.9947264