12
 Ord_Energy   -19.9902763
O       -5.2723684      -1.4060145      -2.8843224
H       -5.4659628      -1.1424198      -3.7899644
H       -4.8382892      -0.6490560      -2.4616477
O       -4.5716571      0.69952112      -1.1951171
H       -4.0038690      0.96602190      -0.4761863
H       -5.3662662      0.32545304      -0.7803751
O       -6.7910332      -0.8857319      -0.5822873
H       -6.4486789      -1.2658020      -1.4072194
H       -7.1742663      -1.6142327      -0.1000207
O       -4.6763806      -1.9453283      -5.4896707
H       -3.8346934      -1.6544339      -5.8386068
H       -4.4918737      -2.2176277      -4.5814333