78
 Ord_Energy   -288.4830026
O       2.79146117      -2.2417114      3.07122582
H       2.97965444      -2.2009008      4.00469005
H       2.00131560      -1.6923309      2.91906863
O       3.11509305      0.25334403      -2.8450735
H       2.82611033      1.17151984      -2.7745119
H       4.07833632      0.24168156      -2.7728372
O       6.46530431      -2.2283602      -3.1083929
H       5.90038564      -2.7443788      -2.5172055
H       6.21258899      -2.4798937      -4.0045283
O       1.62055854      -4.3225635      1.50072578
H       0.74519820      -3.9379385      1.37293170
H       2.08919531      -3.7154694      2.08571755
O       2.86886300      -5.5519732      -0.5650615
H       3.07675230      -6.4436687      -0.2990504
H       2.42608539      -5.1298312      0.19279720
O       0.86245661      1.10672907      0.42470657
H       1.59976715      1.72957631      0.45448555
H       1.20856643      0.29044679      0.02594249
O       1.14799034      -4.7299433      -2.6936185
H       1.78662962      -4.3607036      -3.3178986
H       1.67624147      -5.1240656      -1.9880944
O       0.52623686      -0.8592274      2.46893060
H       -0.0248209      -1.5082663      2.01109536
H       0.55093895      -0.0780422      1.90384315
O       3.10544524      2.80795864      0.10665343
H       3.41896926      3.51722835      0.66103791
H       3.81263567      2.13629184      0.08570826
O       4.08013015      -1.6698411      0.63347621
H       3.81627614      -1.8867465      1.53478752
H       3.25315967      -1.5016693      0.15181902
O       2.15293143      2.85102978      -2.5489944
H       1.22192125      2.61613188      -2.4406901
H       2.51481323      2.96989930      -1.6599493
O       4.47533115      -3.4324444      -1.5110044
H       4.02574158      -4.2334060      -1.2134087
H       4.45339057      -2.8253820      -0.7588359
O       5.00666890      0.91768182      0.00624365
H       5.43645299      0.79677407      -0.8514927
H       4.78538850      0.03110874      0.31906735
O       6.08952121      1.97543354      -4.9016435
H       6.71269139      2.63952154      -5.1837244
H       5.20698770      2.38737296      -4.9268676
O       5.86284058      0.38516311      -2.5941492
H       6.07435081      0.93934641      -3.3544458
H       6.17556496      -0.5149346      -2.7743825
O       3.19368731      -3.3623273      -4.0524436
H       3.59564152      -3.2910654      -3.1750415
H       3.91800400      -3.2823380      -4.6860371
O       1.85793417      -1.0985364      -0.8264256
H       1.17310055      -1.7025969      -1.1359092
H       2.28868529      -0.6888640      -1.5906839
O       -0.2985567      -2.7045418      -1.5752883
H       0.12465890      -3.4551071      -2.0185537
H       -0.5612642      -2.0507922      -2.2389356
O       -0.6692715      -0.6726113      -3.3683666
H       -0.5744376      0.19316213      -2.9561179
H       0.09858134      -0.7944326      -3.9431916
O       3.54674533      2.91878176      -5.0229120
H       3.03010746      3.03956916      -4.2163449
H       3.06781786      2.28303631      -5.5697601
O       -0.4121257      1.84307063      -1.9145424
H       -0.0794865      1.58290462      -1.0392017
H       -1.2455757      2.28575369      -1.7704384
O       5.39632814      -2.8180977      -5.7062828
H       5.84263447      -3.2727453      -6.4155154
H       5.28882618      -1.8927832      -5.9900253
O       1.76251297      -1.0807480      -4.7559144
H       2.12026814      -1.9706308      -4.6481055
H       2.25816918      -0.5470882      -4.1126826
O       5.08022903      -0.2236024      -6.4214966
H       4.19563877      0.11606171      -6.6007732
H       5.53819971      0.47915926      -5.9450158
O       2.40955898      0.80715658      -6.6112804
H       1.81076888      0.83913195      -7.3530716
H       2.09340374      0.09728837      -6.0266171
O       -0.8422201      -2.9276841      1.06360349
H       -0.7191578      -2.8449975      0.10146812
H       -1.7174392      -3.2819617      1.19801707