51
 Ord_Energy   -177.8202060
O       -0.0863329      2.14304876      -11.100599
H       0.33431926      2.68843150      -10.418205
H       -1.0388213      2.30356216      -11.080081
O       -2.6022520      -2.4855492      -9.5695362
H       -2.5218813      -1.8381204      -10.293527
H       -3.3139269      -3.0735628      -9.8066597
O       0.23980738      -2.5745286      -9.4513464
H       -0.6975202      -2.7927711      -9.4730539
H       0.27097464      -1.6071773      -9.3625049
O       2.05290008      -1.7326484      -11.411411
H       1.50347257      -1.1418708      -11.940496
H       1.43732440      -2.2316019      -10.856694
O       0.19603016      0.16295496      -9.0833253
H       0.00655844      0.78181898      -9.7973699
H       0.98961711      0.49415764      -8.6458444
O       -0.4900498      0.82844001      -5.6599621
H       0.35387978      0.36222357      -5.6273436
H       -1.1026705      0.25601423      -6.1406331
O       2.06432176      -0.4363299      -5.7336282
H       2.54939437      -0.6704822      -4.9466624
H       2.12634349      -1.1983963      -6.3368883
O       2.35475922      -2.3744707      -7.6080994
H       1.59235215      -2.6381628      -8.1403579
H       2.98101187      -1.9856209      -8.2313442
O       -2.8854174      2.13535714      -10.968779
H       -2.9560418      2.16076994      -9.9967231
H       -3.5898933      2.67836142      -11.310825
O       0.27440822      0.03048011      -12.776761
H       0.35454789      0.29680383      -13.689565
H       0.24522337      0.84776634      -12.249447
O       -2.9177610      2.11335707      -8.2876558
H       -2.2670450      2.62985516      -7.7969918
H       -2.7974834      1.19849646      -7.9983024
O       -2.0539121      -0.4676989      -7.6183943
H       -1.2544356      -0.1939572      -8.0980653
H       -2.3866884      -1.2305715      -8.1026754
O       1.07091534      3.34420109      -8.9328365
H       1.74774504      2.72950697      -8.6199321
H       0.43241924      3.41213012      -8.2112026
O       -0.8039609      3.28874826      -6.7780580
H       -0.6521137      2.43791199      -6.3290910
H       -0.9029817      3.94424272      -6.0922832
O       -2.2667260      -0.6111154      -11.523302
H       -2.5705843      0.29201552      -11.368901
H       -1.4379315      -0.5326427      -12.009542
O       2.61795378      1.13650239      -8.0246553
H       3.13926816      0.53201461      -8.5710172
H       2.53847790      0.72957397      -7.1522436
O       3.85257530      -0.8800711      -9.5656137
H       4.73890686      -1.0234240      -9.8863840
H       3.25035620      -1.1489094      -10.282298