57
 Ord_Energy   -202.8712160
O       -6.2715735      9.98887253      -4.5035791
H       -7.1288437      9.60174084      -4.2800116
H       -6.1837816      10.7883987      -3.9686665
O       -3.5508115      6.08427429      -3.7932562
H       -4.1764721      5.84826612      -4.4886751
H       -3.8006761      6.97725439      -3.5035736
O       -4.2251567      8.65253735      -3.0924694
H       -3.4810242      9.23415661      -3.3008554
H       -4.9973421      9.01187229      -3.5456991
O       -1.7716180      7.47300625      -0.6089288
H       -2.4631736      8.10659027      -0.3722654
H       -2.2222383      6.62821817      -0.7271510
O       -5.5181937      5.93473196      -5.7522559
H       -5.3247165      6.83836699      -6.0618486
H       -5.7551178      5.42470551      -6.5216913
O       -4.9325718      8.48802185      -6.4600935
H       -4.0128154      8.77708340      -6.4365501
H       -5.4253158      9.10264015      -5.8990697
O       -3.9600200      9.18300629      -0.3836821
H       -4.7544579      8.95152187      0.11148412
H       -4.1369991      8.92829323      -1.3034460
O       -0.2091427      8.48427677      -2.5566434
H       0.67408717      8.60383797      -2.2186596
H       -0.7362076      8.10103321      -1.8320337
O       -3.3120794      5.16657066      -1.2365260
H       -3.3664841      5.38322067      -2.1838436
H       -3.1396160      4.23014021      -1.1781089
O       -1.1772131      7.13681793      -4.8728904
H       -0.7310010      7.49979019      -4.0972604
H       -1.9379057      6.64483976      -4.5350875
O       -6.4625411      8.40098858      0.58372146
H       -6.9562659      8.42668915      1.39851284
H       -6.9135036      9.00134563      -0.0377422
O       -2.0390908      10.3244610      -3.6530554
H       -1.3373997      9.77992058      -3.2691340
H       -2.0553865      10.1350889      -4.5999870
O       -2.1630058      9.24451351      -6.2657380
H       -1.7821067      8.44892883      -5.8510422
H       -1.6502963      9.41861343      -7.0508894
O       -3.5495517      11.6639023      -1.6629343
H       -3.6267077      10.9162760      -1.0539174
H       -2.9427287      11.3766346      -2.3576955
O       -6.0469660      6.12326860      -1.1207145
H       -5.1417784      5.81170321      -1.0151013
H       -6.1712455      6.83898926      -0.4861280
O       -7.6029424      10.0490971      -1.2321897
H       -7.1006660      10.7788210      -1.6133623
H       -8.0437669      9.61380672      -1.9731142
O       -6.0584831      12.0526800      -2.6048595
H       -5.1534276      11.9664526      -2.2566862
H       -6.2597522      12.9845037      -2.6151876
O       -8.6210994      8.79420471      -3.5616042
H       -8.1966867      7.91498566      -3.5492777
H       -9.5119562      8.66829586      -3.8741929
O       -7.3045287      6.48316193      -3.5539453
H       -6.8493113      6.29656696      -2.7187147
H       -6.7194957      6.22196007      -4.2719759