48
 Ord_Energy   -165.9942930
O       9.70970535      2.09150624      -2.1136360
H       8.90956688      2.63241959      -2.0963413
H       9.63308334      1.48666477      -1.3652133
O       14.1856527      2.36471343      2.54467916
H       14.8060532      1.78221357      2.97387457
H       14.6978579      2.91142225      1.92102730
O       14.3724461      4.53802967      -1.6827998
H       13.5199080      4.07804775      -1.5970656
H       14.6595592      4.41758060      -2.5842514
O       11.6650486      2.25284410      1.37577426
H       12.5349884      2.16566753      1.78551340
H       11.2584076      3.05236721      1.74209023
O       9.64346790      0.66817361      0.39785978
H       10.3848944      1.15978456      0.78938776
H       9.78738785      -0.2531553      0.59840459
O       7.42896366      2.40622473      0.81599808
H       7.29459620      2.75108910      -0.0765518
H       8.12390041      1.74116457      0.73968160
O       7.37837553      3.67045188      -1.7369411
H       7.66482162      4.48605633      -1.2878711
H       6.68050718      3.91794825      -2.3372163
O       11.9551754      3.34395456      -1.2079657
H       11.9676008      2.93844390      -0.3311405
H       11.2162914      2.93749881      -1.6842083
O       14.8144627      6.50312138      2.15148187
H       14.1920156      5.99933290      2.70537925
H       15.2635908      7.11452723      2.72872996
O       13.4942398      6.94551563      -0.3365264
H       13.9473963      6.90626431      0.51530516
H       13.8818121      6.24203300      -0.8719328
O       13.1388941      4.87890720      3.54769063
H       12.2261190      4.87847042      3.22783375
H       13.4773321      3.99132109      3.38137817
O       10.6517963      4.66991425      2.27146363
H       9.70067978      4.66421938      2.43375874
H       10.7919312      5.15830135      1.44651842
O       8.20798016      5.79957676      -0.2790055
H       8.02799416      5.56621742      0.63924491
H       9.16317749      5.94426727      -0.3341071
O       15.4851980      4.04878664      0.87912011
H       15.2028866      4.15947104      -0.0372101
H       15.4003820      4.91957188      1.28918338
O       11.0004835      5.81158400      -0.2311425
H       11.2438898      4.98336554      -0.6653057
H       11.7911901      6.36901140      -0.2542831
O       7.86008120      4.60760736      2.33955169
H       7.67004108      3.78106213      1.86001492
H       7.16005802      4.72579575      2.97552323