90
 Ord_Energy   -337.8307800
O       2.25630069      -0.5141359      -2.2459445
H       1.58518696      -1.1606600      -2.4946777
H       2.76293492      -0.9281592      -1.5358705
O       -1.8383531      -0.6099035      5.85609818
H       -2.7311489      -0.3822341      5.56470823
H       -1.2468478      -0.0399136      5.34172153
O       2.51473951      3.93516111      3.11823893
H       3.30010796      4.45898676      2.98277617
H       2.61741352      3.49754333      3.98214078
O       -4.1583132      0.35860446      4.73284817
H       -4.3492546      0.15091556      3.81127930
H       -4.0694003      1.31750357      4.78779745
O       -1.3047279      -0.1817315      -1.5421509
H       -0.5827321      0.45622119      -1.4373372
H       -0.9286464      -0.9699204      -1.9542114
O       2.34618306      -0.3875793      2.02892566
H       2.05851388      0.48214641      1.71913779
H       2.47786927      -0.3150541      2.98487401
O       0.70437551      2.72397828      7.51648664
H       0.03240386      3.09382343      6.91863298
H       0.70282823      3.27059197      8.29890442
O       0.06880254      -2.0747027      2.16053891
H       -0.0464654      -2.3593618      3.07960653
H       0.83050096      -1.4821298      2.13383150
O       -1.2139259      1.62615883      1.96666455
H       -1.5804941      0.80108267      1.62462735
H       -1.9311755      2.26452804      2.05304003
O       1.82260001      -1.9254748      6.69802332
H       1.24167192      -1.3036539      7.17394018
H       2.26423073      -2.4501073      7.35955381
O       0.12660515      -0.1184362      7.79239702
H       0.31290188      0.82491261      7.72888613
H       -0.6794225      -0.2813744      7.28114796
O       -4.7298607      2.02641582      0.53676563
H       -4.3153343      1.85981309      -0.3187463
H       -4.8069520      1.17371559      0.98410654
O       -2.0913705      -0.8399295      1.03659117
H       -1.3767268      -1.3430995      1.45483160
H       -1.8496716      -0.6914792      0.11291884
O       3.46328902      -1.8246011      -0.0014574
H       3.13568830      -1.3057527      0.75350910
H       4.36845589      -2.0524773      0.19371812
O       1.03512084      -3.3124730      -0.1705743
H       1.93228829      -2.9576997      -0.1293118
H       0.61431950      -3.0487318      0.65850020
O       -3.7537024      3.21052432      4.87196589
H       -4.5044527      3.73803520      5.13413811
H       -3.6102874      3.37796926      3.92357898
O       -1.4740371      5.22372913      0.90682268
H       -1.3494724      4.63426733      0.14176318
H       -1.5675255      6.10579252      0.55590195
O       -4.6148624      -0.4195143      1.97862077
H       -5.1446852      -1.2116478      1.92427874
H       -3.7276625      -0.6553612      1.65764177
O       -1.2632377      3.55203676      -1.2104784
H       -2.0273339      3.02338529      -1.4654668
H       -0.4913582      2.99057221      -1.3624258
O       -0.1995914      1.12829053      4.45478010
H       -0.5543733      1.21666980      3.56044197
H       -0.4114353      1.95727623      4.90168762
O       2.76329517      2.64906263      5.49094391
H       2.78221869      1.70746064      5.26920891
H       2.15746164      2.72686505      6.23656273
O       -0.1224907      4.90942144      3.43304157
H       0.80000371      4.66573477      3.28531432
H       -0.5200483      5.02698374      2.56315398
O       -0.2448464      -2.6613059      4.80980444
H       -0.9306901      -2.0899436      5.18288565
H       0.50075924      -2.5859942      5.41538000
O       1.40482748      2.11023045      1.28736961
H       1.80951512      2.76002264      1.87401509
H       0.46735185      2.03910327      1.52493203
O       0.05922996      -2.3974733      -2.5108096
H       0.36217588      -2.7941594      -1.6731739
H       -0.0500446      -3.1127140      -3.1309518
O       -3.3222775      1.64003563      -1.9043488
H       -2.6627688      0.92966270      -1.8383556
H       -3.6784544      1.60174608      -2.7890076
O       2.30238962      0.00312516      4.73398924
H       1.40541255      0.36933646      4.65746784
H       2.26348877      -0.6992367      5.39418650
O       -3.2723588      3.54120255      2.22725749
H       -3.8580400      3.09517670      1.59454739
H       -2.7666535      4.21903467      1.76321507
O       0.78949690      1.63404870      -1.3581883
H       1.11238408      1.83525801      -0.4685679
H       1.39757514      0.98727113      -1.7450957
O       -1.0530178      3.54259419      5.59679174
H       -0.7385411      4.10080290      4.86743736
H       -2.0030636      3.42443085      5.47849846