27
 Ord_Energy   -80.9121323
O       29.7731171      -20.083528      11.8929415
H       29.1802979      -20.140834      11.1467428
H       30.3458500      -19.323787      11.7095785
O       32.0456505      -15.533426      16.3181076
H       31.9240036      -15.086046      17.1508827
H       31.1634483      -15.624679      15.9151859
O       33.9589539      -17.603197      13.1498423
H       33.6040230      -17.883266      14.0131922
H       34.7936096      -18.049104      13.0360889
O       32.7263985      -18.183317      15.4994755
H       32.5724258      -17.330404      15.9259768
H       31.8516712      -18.517562      15.2603741
O       30.1994762      -18.628494      14.2966261
H       30.6782951      -18.177770      13.5836954
H       29.7969742      -19.372060      13.8366470
O       33.0975571      -14.937452      13.7349062
H       32.8625107      -15.030600      14.6676493
H       33.5445290      -15.758554      13.4927530
O       31.4106579      -17.712921      11.9242983
H       31.1248703      -16.789886      11.9267883
H       32.3391647      -17.717895      12.1926699
O       30.7318630      -15.015220      12.3978748
H       30.5571346      -14.229939      11.8865414
H       31.5929031      -14.882446      12.8346653
O       29.7233353      -15.925898      14.9453135
H       29.8834267      -15.559437      14.0667953
H       29.6785908      -16.884882      14.8287897