36
 Ord_Energy   -118.7816700
O       5.94082689      -5.9626717      -22.593317
H       6.62584352      -5.7312464      -21.949764
H       5.09864569      -5.7740659      -22.156803
O       7.50918007      -4.7936120      -20.657657
H       7.68009663      -3.9342961      -21.062580
H       6.77856684      -4.6510844      -20.042091
O       2.25341654      -3.8923313      -24.703046
H       2.59127069      -3.3213107      -23.999198
H       2.00624442      -4.7216906      -24.276182
O       5.04689503      -4.3303256      -19.232530
H       4.71536684      -4.6009149      -18.379726
H       4.43576622      -4.6912293      -19.895425
O       4.38355494      -6.8780589      -24.749738
H       4.48428249      -6.1500754      -25.375068
H       5.06324863      -6.7446851      -24.074577
O       4.45393467      -4.3978052      -26.229635
H       4.32393742      -4.2066965      -27.154420
H       3.61975551      -4.1796760      -25.776008
O       5.22835588      -1.7536797      -20.527465
H       6.08098030      -1.8117452      -20.977680
H       5.18833447      -2.5223839      -19.945152
O       3.78035378      -2.6726834      -22.679658
H       4.13119841      -2.1870365      -21.919382
H       4.55012989      -2.9114117      -23.214298
O       6.07034492      -3.6059045      -24.068599
H       6.09140158      -4.4537458      -23.598552
H       5.65808392      -3.7814843      -24.923097
O       7.56385422      -2.3047337      -22.124418
H       8.27953911      -1.7682126      -22.456604
H       7.11381531      -2.6784205      -22.899648
O       2.05138421      -6.4637208      -23.401569
H       2.84429908      -6.7104153      -23.911117
H       1.42682552      -7.1771693      -23.499382
O       3.50706601      -5.1289749      -21.399219
H       3.52893090      -4.2514209      -21.811096
H       2.89886713      -5.6598053      -21.927677