84
 Ord_Energy   -313.2627482
O       3.26091827      -2.7740380      -3.3584727
H       4.00721351      -2.1681443      -3.2973236
H       2.53380773      -2.2993103      -3.7873386
O       -0.0032169      2.38617558      -1.0829905
H       0.22833312      3.09542611      -1.6927313
H       0.49860488      2.49688876      -0.2598346
O       3.42518471      3.43899532      -2.4460148
H       2.55387266      3.78509296      -2.6762323
H       3.56472886      2.68077184      -3.0270242
O       1.16047928      -1.4712732      -4.7278888
H       0.40334544      -1.0618508      -4.2844721
H       1.46857692      -0.8341926      -5.3826433
O       2.72836022      -3.7019284      -0.7949224
H       3.01599261      -3.4269981      -1.6787637
H       2.23208337      -4.5236100      -0.9050387
O       -1.9672562      0.50426383      -1.0673708
H       -1.6398088      -0.0448863      -0.3407405
H       -1.4105707      1.29555585      -1.0716078
O       4.19490678      2.87022602      0.08917329
H       3.92793469      3.13657512      -0.8098636
H       4.78581673      3.54468803      0.41236452
O       -1.2176405      -4.2674517      -1.9045736
H       -1.6635356      -4.3277409      -2.7581325
H       -1.8486541      -3.9242603      -1.2537015
O       0.50414540      -2.1289806      -1.3622387
H       1.28469667      -2.6319722      -1.0941478
H       -0.1259430      -2.7703193      -1.7140503
O       0.99741421      -5.8146815      -1.4559465
H       0.75047864      -6.6515324      -1.0710525
H       0.17336083      -5.3170334      -1.5962674
O       0.76765322      4.12376319      -3.1494628
H       0.51223133      3.43472063      -3.7908658
H       0.36843597      4.93712279      -3.4455033
O       -2.3686833      -4.3553578      -4.4487612
H       -2.8156333      -5.0455709      -4.9305189
H       -1.4937056      -4.2404010      -4.8658757
O       1.72667000      0.30402267      -1.8763517
H       1.12836785      1.01460240      -1.6140436
H       1.24898438      -0.5322275      -1.7956452
O       -0.8538916      -1.1753661      0.83764103
H       -0.2182091      -0.8159968      1.46621444
H       -0.3306680      -1.5421806      0.10753885
O       -1.0876407      -0.1667317      -3.7038790
H       -1.2910591      0.02789422      -2.7820771
H       -1.8483609      -0.6590037      -4.0473329
O       4.16326137      0.17157429      -0.5928991
H       3.27260809      0.19436102      -0.9791657
H       4.33461972      1.06530795      -0.2715955
O       -3.2904621      -1.6723088      -4.2592527
H       -3.7222018      -1.5556164      -3.4038004
H       -3.0643804      -2.6077771      -4.3351111
O       -2.8357315      -2.9894017      -0.1123172
H       -3.4179763      -2.3862298      -0.5912873
H       -2.2537578      -2.4299691      0.41841463
O       3.48332001      1.00110214      -3.9070906
H       4.23203482      0.43156963      -3.6943972
H       2.77083007      0.75247495      -3.2955010
O       0.08370950      2.12418874      -4.8210635
H       0.70357923      1.73918997      -5.4502976
H       -0.4147437      1.38080390      -4.4545423
O       0.10355307      -4.0009709      -5.4013710
H       0.78851400      -4.5777538      -5.0350265
H       0.43601929      -3.1018324      -5.2894683
O       2.15692010      -5.3285253      -4.0660766
H       2.68330200      -4.5377404      -3.8911106
H       1.80751232      -5.6047877      -3.2105786
O       2.12432624      0.72591387      -6.2514825
H       2.65179795      0.85525614      -7.0349447
H       2.70355285      0.88720383      -5.4857654
O       1.55979811      2.36394655      1.13298141
H       1.52071025      1.51355365      1.58811886
H       2.48207128      2.52413188      0.90131776
O       3.17767302      -1.7565390      1.18232528
H       3.66197273      -1.1150200      0.64554456
H       3.07146931      -2.5367590      0.62337879
O       -4.2064170      -0.9817864      -1.6226886
H       -5.0171166      -0.5166562      -1.4307872
H       -3.4808862      -0.3572056      -1.4497409
O       1.31274640      -0.2088878      2.38992364
H       1.97678981      -0.8033158      1.99703420
H       1.39185202      -0.2998053      3.33636536
O       5.31784560      -0.8528635      -2.8517220
H       6.25317214      -1.0225849      -2.7764559
H       5.01691420      -0.5289848      -1.9846457