24
 Ord_Energy   -69.8161011
O       2.54893541      1.79993629      1.03410029
H       1.87009192      1.15351188      0.85968518
H       2.25391936      2.63350916      0.62771189
O       2.72772193      5.86640835      2.26166630
H       2.44049549      6.65371323      2.71819043
H       3.63713503      6.02987242      1.96763515
O       5.19912577      2.23251724      -0.0036191
H       4.33836079      1.93577659      0.32025948
H       5.01540995      3.01421928      -0.5370720
O       3.36933565      3.23877144      3.38871121
H       3.05631709      2.64080906      2.69709778
H       3.02720952      4.10758781      3.14894295
O       4.55630779      4.86081648      -1.1284323
H       4.88986826      5.34095860      -0.3548639
H       4.93014193      5.28458548      -1.8974777
O       2.00072885      4.27627659      0.00385551
H       2.06768918      4.86579847      0.76603848
H       2.77251792      4.47819281      -0.5406754
O       5.37245989      6.05505848      1.29490089
H       5.63861895      5.20224237      1.69143236
H       6.06823635      6.67751980      1.48555768
O       5.91356134      3.64930630      2.30037522
H       5.14012766      3.44896865      2.84681463
H       5.84750986      3.05995893      1.53536654