45
 Ord_Energy   -152.7433320
O       0.47873533      -0.6096151      -4.6257123
H       0.34706530      -0.5269700      -3.6714971
H       -0.4012820      -0.6514472      -5.0190262
O       -1.0672097      2.17963219      -6.5107183
H       -0.1182044      2.02103496      -6.4187898
H       -1.2503057      2.98403668      -6.0116629
O       -1.5453023      -0.6532114      0.45198581
H       -1.6520059      -1.4579911      0.95227164
H       -2.4225928      -0.4250501      0.09533511
O       -3.8584284      0.23958005      -0.6746858
H       -3.6147432      0.26196727      -1.6109590
H       -3.9357020      1.16359580      -0.4064266
O       -1.4351965      2.01248503      1.52917433
H       -1.4041358      1.08705044      1.25852740
H       -2.1869308      2.40043330      1.06409740
O       1.63404346      1.50640059      -5.8758335
H       1.30379641      0.72071111      -5.4048123
H       2.38578486      1.22306073      -6.3889069
O       -2.1375207      -0.2032908      -5.8024325
H       -2.5787036      -0.6220043      -6.5359802
H       -1.8181247      0.66126418      -6.1192760
O       -2.2863638      3.22977877      -2.5339005
H       -2.0489387      3.74732900      -3.3131587
H       -2.4680862      2.32690430      -2.8367807
O       -3.5605468      3.03566313      -0.1016275
H       -3.1298167      3.21616769      -0.9539312
H       -4.1597223      3.75966120      0.06167570
O       -0.1835186      -0.0225775      -1.9521088
H       -0.5115019      -0.3212574      -1.0953803
H       0.13800520      0.88430154      -1.8360433
O       -2.6271708      0.55682945      -3.1695976
H       -1.7787190      0.30518675      -2.7745018
H       -2.6040511      0.26092732      -4.0871481
O       1.23027754      3.73273754      -4.1687212
H       1.10569823      3.36808348      -3.2808029
H       1.49810052      2.99470448      -4.7305421
O       0.39132550      2.67560220      -1.7299865
H       -0.5217091      2.94277978      -1.8981866
H       0.62775826      2.97980404      -0.8415061
O       0.82188231      3.39914536      0.86667478
H       1.36845791      3.58802652      1.62386310
H       0.04175587      2.92628121      1.20462763
O       -1.2712986      4.50302029      -4.8230586
H       -0.3395730      4.31391001      -4.6038899
H       -1.3020701      5.39959288      -5.1456923