60
 Ord_Energy   -214.6732480
O       0.52047002      7.63087940      -5.3495373
H       -0.2281096      8.01154804      -5.7993927
H       1.28748620      7.72531843      -5.9459629
O       4.60922098      9.18812943      -5.4026241
H       4.35173082      9.59082222      -4.5643262
H       5.13042068      8.40789604      -5.1848387
O       0.48008493      4.23469162      -1.9587491
H       -0.3954645      3.85573339      -1.9425393
H       0.65560865      4.49448204      -2.8789489
O       4.30892134      2.15808749      -4.1547575
H       3.80778217      2.36782742      -3.3465485
H       4.41622782      1.21040499      -4.1708703
O       3.65845561      10.2557087      -2.9273154
H       4.17553902      9.77376556      -2.2540826
H       3.72314405      11.1825495      -2.7157115
O       1.31237757      6.66013479      -0.6151727
H       1.33523428      7.28301477      -1.3558894
H       1.00454688      5.82180977      -0.9775857
O       6.91648149      7.30841780      -2.5216875
H       7.17807722      6.47271347      -2.1170914
H       6.65039110      7.08879757      -3.4222309
O       2.98375678      2.83549476      -1.8943423
H       3.55421329      3.47828174      -1.4483084
H       2.09299445      3.19933486      -1.8462079
O       1.27667296      5.07794619      -4.4504180
H       2.13220143      5.34355879      -4.0740790
H       0.88534492      5.87992620      -4.8188858
O       2.70458317      7.84674358      -6.8681950
H       3.22284532      7.09174252      -7.1667013
H       3.33285499      8.43374348      -6.4202156
O       4.56999397      4.89452553      -0.9384409
H       5.53020716      4.82607317      -1.0129622
H       4.36093903      5.56373596      -0.2744404
O       5.64318752      6.46735144      -4.9691743
H       4.87411118      6.34887314      -4.3858842
H       5.35088730      6.23721409      -5.8607797
O       1.74531305      8.23502064      -2.8709797
H       2.30273175      9.02285194      -2.9221372
H       1.27554369      8.14185047      -3.7091183
O       3.54342794      6.10539007      -3.2668485
H       3.88479257      5.70657635      -2.4563236
H       3.02966356      6.88897610      -3.0299789
O       5.00068045      8.77384949      -1.1620295
H       5.71391869      8.27508259      -1.5880435
H       4.60205555      8.19951916      -0.5005477
O       4.45428038      5.63188696      -7.3720631
H       3.94572163      4.89317417      -6.9915337
H       4.78419161      5.33654976      -8.2162456
O       3.67125058      6.98050785      0.66370821
H       3.54584193      7.14911842      1.59340370
H       2.78405237      6.88040161      0.27205429
O       7.29946661      4.65965080      -1.5103900
H       7.10290623      4.31255531      -2.4003739
H       8.08688927      4.21752405      -1.2065510
O       3.02809334      3.68228459      -6.1608133
H       3.47501135      3.10050821      -5.5329942
H       2.28571749      4.06795549      -5.6783995
O       6.54538870      3.90892601      -3.9882607
H       5.80220318      3.30044508      -4.0852627
H       6.29960871      4.72334146      -4.4428339