21
 Ord_Energy   -57.1903267
O       32.0433197      3.56034136      -0.9541103
H       32.0973320      3.71045113      -0.0144028
H       31.9846458      2.59705305      -1.0707595
O       30.3909092      2.10541177      -3.9279346
H       30.8916817      2.92987537      -3.9722342
H       30.6702747      1.70066082      -3.0962486
O       32.3434067      4.17557526      -3.6109278
H       32.5199165      5.09657621      -3.7819013
H       32.2596626      4.08303499      -2.6455042
O       31.4106483      -1.4863106      -3.0325951
H       31.8606663      -2.3245258      -3.1122529
H       31.5041466      -1.0530509      -3.8942573
O       31.6609802      0.15063874      -5.3483986
H       31.1154671      0.85472161      -4.9538812
H       31.4047184      0.08773164      -6.2644600
O       31.9779644      0.94134921      -1.7745896
H       32.7007828      1.13920927      -2.3913841
H       31.7207642      0.03176360      -1.9692037
O       33.7147217      1.62169182      -3.8603694
H       33.3908768      2.53017282      -3.9151411
H       33.2011719      1.11884797      -4.5043482