60
 Ord_Energy   -214.9293820
O       -2.1855328      7.78439760      -3.1647245
H       -2.5763351      7.67513371      -4.0274272
H       -2.6733810      7.19678164      -2.5602920
O       -4.2752208      7.17615557      3.34136534
H       -5.1867895      7.12769842      3.61798763
H       -4.2750229      7.48600912      2.41925454
O       -2.5773451      11.3642960      2.16326666
H       -2.6661937      10.7055941      2.86821103
H       -1.6408538      11.5890245      2.13689685
O       -3.5403559      6.25588751      -1.3751347
H       -3.8484852      6.83983564      -0.6697869
H       -3.1848452      5.47714996      -0.9300420
O       0.55188972      7.28294468      -2.4408178
H       -0.3192825      7.46364117      -2.8098282
H       0.41470724      6.59082174      -1.7772181
O       0.04018364      6.09795332      3.50750041
H       0.14943136      7.05427933      3.44753456
H       0.74193960      5.72157288      2.96264935
O       2.01451802      5.28555822      1.59208429
H       2.28394485      6.21959782      1.51326549
H       2.80843854      4.77811670      1.73440230
O       -2.4949069      9.32549381      4.03060293
H       -3.0603761      8.55178928      3.92193151
H       -1.5998160      9.04395008      3.81218481
O       -3.9271791      8.05124283      0.77159512
H       -2.9590876      7.98040199      0.79412252
H       -4.1221399      8.95750904      0.50341970
O       -1.1658675      8.04187775      0.56707770
H       -1.1946640      8.67961979      -0.1578149
H       -0.7707728      7.22302771      0.24157251
O       0.27494791      11.6064901      2.13554096
H       0.80517709      12.3514366      2.40444398
H       0.44565257      11.4632616      1.18657565
O       -0.0128639      5.62100410      -0.3099942
H       0.67488092      5.39067125      0.32779723
H       -0.7564629      5.01808262      -0.1837823
O       -2.3484230      4.17157698      0.16385368
H       -2.4095892      4.49566650      1.08259881
H       -2.5557975      3.24177575      0.18525401
O       -1.7134237      9.94881153      -1.4483684
H       -2.5419518      10.2657309      -1.0653531
H       -1.9282584      9.30106640      -2.1317775
O       -2.4144074      5.14125967      2.65515256
H       -1.5643014      5.43785000      3.01192784
H       -3.0797295      5.74986029      2.99371386
O       0.14237992      8.88401604      2.80732512
H       0.24037738      9.84153938      2.72438812
H       -0.3548419      8.59037399      2.02474236
O       2.47362494      7.93122673      1.37201309
H       1.78349054      8.36451912      1.88755119
H       2.44879007      8.31732845      0.48736417
O       2.33978939      8.95381260      -1.2785658
H       1.70784760      8.37399864      -1.7397660
H       3.10506558      9.02701950      -1.8430934
O       0.64254123      11.0643034      -0.4768385
H       -0.1826726      10.8046961      -0.9091094
H       1.29949534      10.4172945      -0.7612126
O       -3.9995594      10.7488937      -0.0113192
H       -4.6655225      11.4119768      -0.1672787
H       -3.5027842      11.0262756      0.78272182