57
 Ord_Energy   -202.7715910
O       -0.8338564      -8.8494586      -6.3970789
H       -1.2588528      -9.5255527      -6.9180207
H       -0.1252708      -8.4761877      -6.9506983
O       0.12183687      -5.5524191      -1.5776164
H       1.07278907      -5.4818048      -1.7488180
H       -0.2751879      -4.7078657      -1.8131893
O       3.76469231      -3.3190021      -3.9347891
H       2.82295537      -3.0790956      -3.9760606
H       4.22866631      -2.5540986      -3.6033062
O       -1.7624822      -6.7959208      -4.7103490
H       -1.5633685      -7.4954223      -5.3462004
H       -1.6462001      -7.1768989      -3.8286135
O       2.43989253      -2.9424593      -8.1459789
H       2.74449587      -2.3922152      -8.8623361
H       1.82582438      -2.4027380      -7.6164517
O       0.49586034      -4.9714231      -7.8298025
H       0.63212156      -5.1765513      -6.8893165
H       1.19216454      -4.3519544      -8.0805778
O       2.81444430      -5.4954886      -2.2568996
H       2.84822917      -6.2373790      -2.8783876
H       3.25202703      -4.7672390      -2.7090590
O       1.12128353      -7.7140350      -7.8978433
H       2.03492379      -7.6687607      -7.5896959
H       0.86250150      -6.8000531      -8.0743770
O       3.97775197      -4.6417303      -6.4572444
H       3.52614665      -4.0238814      -7.0446820
H       3.99167919      -4.2277827      -5.5856900
O       -1.1384187      -3.1147911      -2.4943430
H       -1.6670436      -3.4398882      -3.2459805
H       -1.7145762      -2.5675082      -1.9682023
O       0.57950723      -1.6900639      -6.6202669
H       -0.2771317      -2.0642740      -6.8584499
H       0.75739557      -2.0041549      -5.7222333
O       -1.6781562      -3.3353595      -7.3162417
H       -2.2927351      -3.2901341      -8.0448675
H       -0.9892211      -3.9708137      -7.5724449
O       1.06744719      -2.9547104      -4.1779284
H       0.38009903      -2.8395941      -3.5110580
H       0.95562267      -3.8571116      -4.5184459
O       -2.4544827      -4.0921578      -4.6557445
H       -2.3736701      -5.0556798      -4.6885800
H       -2.2486400      -3.7774176      -5.5436034
O       -1.0937918      -7.8497066      -2.2132856
H       -1.5449038      -8.1891593      -1.4457361
H       -0.6319149      -7.0377306      -1.9315414
O       0.64696288      -9.2793598      -3.9714961
H       0.13963081      -9.2580938      -4.7922415
H       0.07501559      -8.8933010      -3.2952971
O       0.70692486      -5.5079307      -5.1462812
H       -0.1492110      -5.8972482      -4.9286823
H       1.38726556      -6.1202406      -4.8373875
O       2.59587407      -7.3837647      -4.2867136
H       3.06915402      -7.5065579      -5.1172499
H       2.00073814      -8.1381769      -4.1606760
O       3.75046802      -7.3108277      -6.8532156
H       4.58848333      -7.6529617      -7.1528692
H       3.86467886      -6.3496146      -6.7387671