81
 Ord_Energy   -300.2192832
O       -1.7361392      2.73832255      -1.2059518
H       -2.6966824      2.73986112      -1.3232694
H       -1.4998297      2.07128677      -0.5522959
O       4.14567723      2.22828196      -2.6505535
H       4.21128531      1.65331003      -1.8770842
H       4.58169011      3.06152133      -2.4289081
O       -1.3587789      5.44179325      -0.8871099
H       -2.2070817      5.75621426      -1.2205755
H       -1.4041910      4.47415606      -0.9480952
O       1.60908143      3.18599350      -1.8783687
H       2.42165110      2.94642637      -2.3454000
H       1.23095645      3.96096223      -2.3119137
O       -3.1703650      5.11233691      -4.6902573
H       -2.2544557      5.09834890      -4.9964922
H       -3.5014025      4.21335940      -4.8159678
O       2.97955672      4.61925204      0.05997419
H       3.74660524      4.86053608      -0.4699157
H       2.41912978      4.10234513      -0.5402605
O       3.17873665      5.59226976      -3.8705260
H       2.32679920      5.78656622      -3.4547279
H       2.96479953      5.11149506      -4.6786370
O       0.59831465      5.60272189      -2.8513247
H       0.15342008      5.37466036      -3.6800928
H       -0.0788415      5.70233434      -2.1707557
O       4.01104253      0.59272010      -0.3215394
H       4.62134743      -0.0410223      0.04500517
H       3.72385266      1.16822363      0.41117746
O       0.42671869      4.96718312      1.26780430
H       1.31603596      5.08491640      0.91069830
H       -0.1909971      5.27903091      0.59472915
O       -1.9506248      -1.1397995      -3.2559179
H       -2.1643985      -1.1163344      -2.3159852
H       -2.7727532      -0.9265176      -3.7120807
O       0.51243981      -0.0037871      -3.7462727
H       -0.3104507      -0.5130284      -3.6869483
H       0.83955609      0.07699513      -2.8395915
O       -2.7183976      -0.9282870      -0.4517434
H       -2.0675131      -0.3550303      -0.0160074
H       -2.7776903      -1.7210543      0.07704604
O       -4.3964190      3.04888292      -1.9054504
H       -4.2529556      2.81701651      -2.8366061
H       -4.3768090      4.01221518      -1.8628676
O       -0.4353700      4.59857429      -5.2107866
H       -0.6348818      3.74899587      -4.7841710
H       0.41515624      4.48348358      -5.6512097
O       4.96994338      4.86014050      -1.9994309
H       5.78226904      5.35118364      -2.0860680
H       4.36955413      5.18634245      -2.6960209
O       2.55908822      1.62421688      -4.9057775
H       1.90056866      0.98326383      -4.6111088
H       3.21546264      1.70105014      -4.2008904
O       3.06402448      2.26834157      1.57100914
H       3.15249386      3.14436572      1.16928844
H       2.17047728      2.23646930      1.92966619
O       1.31841336      0.58293876      -1.1351367
H       1.30223257      1.52889174      -1.3579896
H       2.21969362      0.39119011      -0.8514418
O       -3.8626441      5.85053542      -2.1704873
H       -3.6053707      5.65964339      -3.0911564
H       -4.4615560      6.59189179      -2.2028604
O       -3.7333388      2.33197130      -4.5234713
H       -2.7787700      2.24648557      -4.3747582
H       -4.0750730      1.43336757      -4.6014144
O       -1.0503955      2.29790939      -3.8589103
H       -0.4939154      1.51179889      -3.9123288
H       -1.2028756      2.47091354      -2.9194030
O       -0.8127300      0.76656445      0.56052603
H       -0.0467304      0.58737390      -0.0073955
H       -0.4962069      1.31837308      1.28698781
O       -4.5535861      -0.3436453      -4.2370151
H       -4.8076856      -0.1667975      -3.3131023
H       -5.2323456      -0.9004803      -4.6086739
O       2.20315755      4.03629154      -6.0786461
H       2.55123047      3.99589936      -6.9656006
H       2.31130925      3.14622240      -5.6970366
O       0.30142493      2.52280804      2.42637497
H       0.29318304      3.41205703      2.02772776
H       0.12030269      2.64164439      3.35543688
O       -5.0071521      0.29481443      -1.6307875
H       -4.2720972      -0.0865317      -1.1336103
H       -4.9281858      1.25440875      -1.5531620