39
 Ord_Energy   -129.7068020
O       0.46838814      11.9759121      -7.6810483
H       0.85196453      11.8286362      -8.5543537
H       1.12200665      12.4727821      -7.1717138
O       1.43492639      8.70055485      -8.8581132
H       0.92881775      8.83773232      -8.0481643
H       2.34913635      8.58259487      -8.5622320
O       5.74534035      10.3245249      -5.0167856
H       6.05969524      9.58190727      -5.5485291
H       4.78125668      10.2813883      -5.0314726
O       3.96750617      8.91763306      -7.7205576
H       4.84425783      8.58593559      -7.4947066
H       3.63600945      9.39730072      -6.9473719
O       2.91971874      10.3277607      -5.5381650
H       2.81444144      11.2827368      -5.6498146
H       2.03585625      9.95505524      -5.6517596
O       0.30017120      9.60161591      -6.3682704
H       0.25965422      10.4643393      -6.8207154
H       -0.5531312      9.45996666      -5.9676418
O       6.63714361      8.46022892      -7.0131778
H       7.30168390      7.78527164      -7.1170311
H       6.88309526      9.19495010      -7.6042881
O       4.64536047      13.3162842      -7.5785164
H       4.55422306      12.6346884      -8.2588367
H       5.48107815      13.1379089      -7.1296567
O       2.48291016      13.0778923      -6.0225868
H       3.25953341      13.2436771      -6.5874776
H       2.40277696      13.8231268      -5.4339723
O       1.63482225      11.0953560      -10.158054
H       1.52209461      10.2024870      -9.7845611
H       1.20486283      11.0927553      -11.009310
O       6.97532701      12.4127207      -6.2667398
H       6.54412413      11.7130432      -5.7442736
H       7.65237665      12.7932110      -5.7141895
O       7.06973028      10.6769571      -8.5351877
H       6.26597881      10.9020185      -9.0206871
H       7.16345215      11.3525810      -7.8506760
O       4.36100912      11.1580496      -9.3518915
H       4.26120901      10.3700237      -8.7973814
H       3.50757337      11.2661533      -9.7876148