66
 Ord_Energy   -238.3246453
O       12.8826418      11.9517305      -11.998501
H       13.6313099      12.5562541      -12.074411
H       12.7691326      11.7433981      -11.059596
O       14.9742008      7.59169445      -15.951429
H       14.8027078      6.96814560      -16.652187
H       14.3236031      7.41012240      -15.251257
O       12.1273667      10.8890444      -15.901722
H       13.0759027      10.7514237      -15.760686
H       12.0552422      11.4294844      -16.684943
O       8.93387249      10.7933561      -11.416294
H       8.66725044      9.86780722      -11.355731
H       9.50942293      10.8513363      -12.190530
O       15.2894941      13.3756439      -12.054495
H       15.8144822      12.8804878      -12.708108
H       15.5198238      14.2949632      -12.158518
O       17.0730480      7.54896427      -13.958632
H       16.5198201      7.55976388      -14.746150
H       16.6310409      6.94651124      -13.341637
O       16.6832686      11.9116201      -13.869450
H       17.2495916      11.2118704      -13.520108
H       16.1406942      11.4953119      -14.551012
O       16.3364306      9.42912509      -10.693771
H       16.1213604      10.2733025      -10.266708
H       17.0693208      9.56363963      -11.306568
O       9.96846558      8.55675438      -8.7233601
H       10.8763625      8.38894427      -9.0131242
H       9.90422686      9.51404925      -8.6194512
O       14.8299459      10.3352696      -15.324524
H       14.7117643      10.1513618      -14.378714
H       14.9669140      9.47259447      -15.735652
O       14.3506227      9.66912593      -12.681072
H       15.0456844      9.57293127      -12.019808
H       13.8040405      10.4203448      -12.418997
O       13.3646422      7.32548394      -13.725303
H       12.4539336      7.34501870      -13.408525
H       13.7650979      8.12558435      -13.347290
O       9.91976343      11.4294581      -8.9615848
H       9.55602527      11.2779205      -9.8527333
H       9.35935195      12.0771956      -8.5430799
O       15.0406040      7.22659530      -9.7709182
H       15.5687767      7.99638858      -10.047098
H       15.4183527      6.91179007      -8.9532384
O       8.60262762      7.96766312      -11.001908
H       7.86920423      7.37364513      -10.870078
H       9.01949528      8.10048308      -10.131482
O       15.4326435      11.7765331      -9.6639557
H       14.5110954      11.6277347      -9.4135990
H       15.4213316      12.4094218      -10.392745
O       12.4772897      8.38585283      -9.9833885
H       13.3071939      7.89804645      -9.9267406
H       12.0979632      8.24242660      -10.860963
O       11.0461968      8.07768100      -12.415160
H       10.1802106      7.90581304      -12.027164
H       11.0044479      8.96309236      -12.806559
O       15.4449443      6.00336143      -12.329558
H       14.6443676      6.27245220      -12.799472
H       15.3142628      6.28667434      -11.417323
O       10.9107775      10.6826755      -13.420332
H       11.1938808      10.7232828      -14.343424
H       11.5458622      11.2235938      -12.927828
O       18.1621541      9.71616517      -12.799625
H       17.8032321      8.93153930      -13.254883
H       19.1120248      9.63796147      -12.824985
O       12.6725204      11.0959905      -9.3909740
H       12.6715340      10.1424198      -9.5634790
H       11.7710109      11.3224920      -9.1292696