51
 Ord_Energy   -178.0052800
O       3.84210157      2.03888941      16.9542141
H       3.62964392      1.10045218      16.8441887
H       4.71518612      2.15927601      16.5630150
O       3.59537673      1.37065053      11.8015480
H       4.21928215      0.64179909      11.9373264
H       3.94961810      1.89020002      11.0690079
O       3.13511181      -0.5084025      16.0537262
H       2.66906881      -0.1827305      15.2701883
H       2.88922763      -1.4346226      16.1629276
O       2.64195728      -3.2577588      15.8782682
H       2.46037054      -3.9994912      16.4483109
H       3.54366183      -3.3804943      15.5299826
O       3.97361684      3.40800834      13.6678104
H       3.83494425      2.70277929      13.0187836
H       3.18654490      3.42780089      14.2234812
O       5.42987585      -0.6548406      12.2132483
H       5.02863073      -1.5104174      12.0197754
H       5.56837082      -0.6176444      13.1712618
O       1.80875897      -2.2732310      13.3101139
H       1.63974321      -1.3304090      13.4280195
H       1.91314256      -2.6450431      14.1953115
O       5.69673634      -0.5279634      14.9549866
H       4.82022762      -0.5686488      15.3636274
H       5.97922993      0.39207908      15.0460625
O       5.10580730      -3.3265700      14.7168350
H       5.53831911      -2.4742519      14.8542538
H       4.88886833      -3.3651986      13.7763901
O       6.08270073      2.23120189      15.1013069
H       6.86337233      2.47720337      14.5899086
H       5.33823538      2.64153719      14.6376066
O       1.79843652      2.93629575      15.3953962
H       1.16584146      3.47138095      15.8665972
H       2.48359299      2.67643213      16.0379276
O       1.80880558      0.55140608      13.8099985
H       2.33030534      0.81768453      13.0395832
H       1.61495745      1.36107028      14.2991142
O       5.93792152      4.56305456      12.0492144
H       6.72965336      4.17545795      12.4420872
H       5.22238970      4.37556076      12.6734304
O       7.16960907      1.27787900      11.1727123
H       6.67630529      0.50403249      11.4773188
H       6.55121708      1.78433716      10.6327534
O       5.11345768      2.94759774      10.0159950
H       5.03986263      3.39652896      9.17840385
H       5.40871525      3.61058855      10.6658802
O       8.02901840      2.92000890      13.1683016
H       7.79371834      2.29189634      12.4618101
H       8.97745800      3.01463008      13.1463318
O       4.07563305      -3.0903658      12.0453520
H       3.88062072      -3.7310867      11.3671322
H       3.22268820      -2.8045895      12.4191093