72
 Ord_Energy   -263.7695275
O       12.2323590      10.6329835      -15.213987
H       12.9450999      11.2779538      -15.255262
H       12.5175050      9.88872469      -15.766006
O       16.0564911      6.62239112      -13.052108
H       15.3342481      6.66770037      -12.409965
H       16.8253215      7.05403475      -12.654432
O       17.2092160      10.7364698      -11.472499
H       17.1039147      10.7520377      -10.513402
H       16.3374869      10.8996241      -11.859747
O       16.7859444      10.5906971      -15.777075
H       16.2737511      9.91558371      -15.301709
H       17.4563585      10.9185398      -15.156070
O       12.8586372      5.76299640      -15.809388
H       12.5553626      6.06014040      -14.931639
H       12.2370442      5.10431415      -16.106710
O       14.2515624      9.45254122      -8.6216468
H       14.3690574      8.49804696      -8.5399000
H       13.7081523      9.59028290      -9.4091076
O       13.9343041      6.99386888      -11.298101
H       14.2269367      6.74814642      -10.411742
H       13.6611247      7.92085346      -11.248773
O       14.7826675      11.0094791      -12.760555
H       14.8680915      10.1890069      -13.275353
H       14.6631084      11.7023141      -13.417844
O       17.1603653      6.62620936      -17.511433
H       16.6391610      6.18568194      -16.815916
H       17.4072185      5.95324954      -18.139708
O       14.9772367      6.66937139      -8.7276655
H       15.0210563      5.98157459      -8.0694418
H       15.8922794      6.96067699      -8.8939593
O       18.7677206      8.46637589      -16.132612
H       18.3056801      7.76354066      -16.606176
H       18.1757810      9.22606286      -16.146350
O       15.6802744      5.48948652      -15.573121
H       15.8748906      5.75075971      -14.662704
H       14.7195140      5.49515769      -15.659858
O       20.1163617      8.67574701      -13.806795
H       21.0470985      8.51078600      -13.929376
H       19.6857323      8.51269713      -14.665676
O       15.1599100      8.86569827      -14.394547
H       15.4821093      8.04710063      -13.998883
H       14.4796226      8.64839770      -15.044020
O       11.0447195      9.37963614      -13.122402
H       10.1145873      9.58963748      -13.136290
H       11.4531131      9.87370754      -13.855688
O       17.4316698      7.70607557      -9.2257008
H       17.7724857      7.71087859      -10.129749
H       17.3528390      8.63337295      -8.9696031
O       12.0917025      6.72147629      -13.411471
H       12.6863428      6.65916167      -12.653046
H       11.6711495      7.58747031      -13.350896
O       18.6452542      11.1749921      -13.854064
H       19.2818229      10.4508294      -13.826015
H       18.2227868      11.1766939      -12.984439
O       18.1041255      8.12265674      -11.931325
H       17.7638998      9.01944916      -11.798116
H       18.8671582      8.20743872      -12.516213
O       16.7678254      10.4599368      -8.7171561
H       16.9420511      11.0065351      -7.9558213
H       15.8397001      10.1713851      -8.6507914
O       15.6088839      8.97286782      -17.927060
H       16.0702524      9.65204710      -17.423423
H       16.1609421      8.18036622      -17.880249
O       13.0166273      9.64765040      -11.142406
H       13.6234585      10.2289545      -11.622750
H       12.2310048      9.57449918      -11.698623
O       14.6179461      12.3463984      -15.259781
H       15.3842127      11.8238242      -15.542290
H       14.7106623      13.2036835      -15.668948
O       13.3339934      8.45072649      -16.485527
H       14.0569661      8.58421931      -17.117192
H       13.1423302      7.50790182      -16.422550