87
 Ord_Energy   -325.2781261
O       -0.1654301      -1.7768394      -3.2266969
H       -0.9561279      -1.2466880      -3.4183341
H       0.55900128      -1.4717535      -3.7855177
O       0.89859680      -0.5890947      -0.9235344
H       0.47270684      -0.9757288      -1.6981646
H       1.62664637      -1.1722239      -0.6712220
O       -0.4607006      0.68561698      1.03791526
H       -0.4469597      1.59131191      0.69991355
H       -0.0953466      0.12041903      0.34217184
O       1.82418718      -1.1661730      3.64479637
H       1.88600067      -0.2631889      3.29777929
H       1.24357692      -1.1103887      4.41347265
O       2.96958324      -2.3461269      -0.3122707
H       2.38120768      -3.1119005      -0.2206766
H       3.41412147      -2.2354041      0.53517176
O       -0.0170518      3.33963487      0.21989128
H       0.71929157      3.02059947      -0.3213071
H       -0.8232566      3.23958257      -0.3124659
O       1.85393848      1.30022310      2.44350737
H       1.61038837      2.17783170      2.75812577
H       1.08255172      0.99460423      1.94320405
O       1.87887907      1.99794945      -1.3448755
H       1.54809134      1.09585194      -1.2182505
H       2.84166259      1.93913649      -1.3272484
O       -3.2315868      -0.0088759      -0.8602232
H       -2.7095407      -0.7638455      -0.5523590
H       -3.9785746      0.05249619      -0.2540096
O       -0.1055315      -2.6362123      2.14522566
H       -0.8330895      -2.5390007      2.77480132
H       0.62453460      -2.1366231      2.52853467
O       -2.6216369      0.54564173      2.71523763
H       -3.4607878      0.48710110      2.24661357
H       -1.9099793      0.55001647      2.05545643
O       -1.9580499      -2.3154672      0.06871588
H       -1.2450103      -2.3176284      0.72169254
H       -1.7081428      -2.9483321      -0.6153240
O       -1.6655644      2.41812638      -4.0739913
H       -0.7065304      2.24761342      -4.0945981
H       -1.8514730      3.03302049      -4.7779614
O       2.06596498      -0.7307384      -4.5579416
H       2.74355731      -0.8207478      -3.8634306
H       2.47978865      -0.9861278      -5.3780760
O       -2.0926783      -1.8831672      3.96169472
H       -2.3335146      -1.0473430      3.53088696
H       -1.5010791      -1.6317849      4.67958511
O       -0.1048941      -0.6370995      5.62963619
H       -0.3569223      0.24395567      5.29740643
H       -0.0724966      -0.5706943      6.58034262
O       3.89381589      -0.9540137      -2.5775277
H       4.22270536      -0.1391180      -2.1792858
H       3.66584711      -1.5375746      -1.8413042
O       0.97502287      1.86103354      -4.0047353
H       1.35229087      1.01664257      -4.2768643
H       1.31550182      2.02951715      -3.1161771
O       -0.9202017      1.73727568      4.56762993
H       -1.6288095      1.43157795      3.98257630
H       -0.4738951      2.44330632      4.08880437
O       4.63570609      1.45113363      -1.2259214
H       4.59840390      1.17344435      -0.2922630
H       5.42022847      1.98330163      -1.3250410
O       -0.9104898      -4.0226369      -1.9033528
H       -1.3305196      -4.6455312      -2.4905017
H       -0.6100802      -3.2761495      -2.4511191
O       0.47795461      3.69894970      2.90668073
H       0.26020118      3.66357271      1.95882365
H       0.60468657      4.61960429      3.12072639
O       4.34786491      0.68499082      1.33594860
H       3.51021293      1.00525179      1.69844009
H       4.44406292      -0.2156334      1.66454740
O       -5.0186332      -0.1063971      1.33013541
H       -5.9470845      0.01001322      1.51079136
H       -4.7950189      -1.0236420      1.57091432
O       1.08530360      -4.2640453      0.13658227
H       0.64820347      -3.8528647      0.89456571
H       0.42373760      -4.3126754      -0.5641430
O       -4.0396770      -2.5698957      1.96236074
H       -3.3887160      -2.6220186      1.24790064
H       -3.5245912      -2.5538127      2.77792176
O       -2.3940545      -0.2674398      -3.5404301
H       -2.8214980      -0.1977056      -2.6762992
H       -2.2212866      0.63928244      -3.8233588
O       4.07363184      -1.9947357      2.29148207
H       4.59389351      -2.6482974      2.75224086
H       3.30943636      -1.7952894      2.85732701
O       -2.1386138      2.59246549      -1.2700476
H       -2.0186221      2.61923189      -2.2272711
H       -2.5091986      1.72240044      -1.0739194