48
 Ord_Energy   -167.2497410
O       0.69133174      -2.6957118      1.45339680
H       0.32473072      -3.2048592      0.71501017
H       1.60566211      -2.9872653      1.55310333
O       -4.1472139      0.16590995      1.45436180
H       -3.2168030      -0.0955129      1.46710050
H       -4.5102429      -0.1777845      0.62849689
O       -0.5086675      -4.3066248      -0.4993785
H       -1.2526525      -3.7555363      -0.7732221
H       -0.8668309      -4.9626207      0.11661368
O       -6.1030249      -2.9571235      1.25218618
H       -5.4636726      -3.6814189      1.28035963
H       -5.9819092      -2.4615216      2.07174611
O       -3.7706418      -4.5641336      1.22133791
H       -3.1227097      -5.2767477      1.28892052
H       -3.4453129      -3.9633531      0.53483778
O       -5.3132977      -1.2751793      3.45391941
H       -5.8006768      -0.7401461      4.07423973
H       -4.9365239      -0.6685229      2.79126978
O       -1.4283056      -6.0692691      1.50109184
H       -0.7655521      -6.7680311      1.44248819
H       -1.1565165      -5.5005855      2.23700738
O       3.11533761      -4.0955133      1.73745942
H       2.73240113      -4.7125334      2.38687491
H       4.01612854      -3.9353401      2.00488520
O       1.78233600      -5.8172974      3.37858319
H       1.50206411      -6.5553989      2.82304525
H       0.97472262      -5.3493742      3.62953568
O       -3.0504565      -2.9460008      3.39190245
H       -3.8135495      -2.4001219      3.61695766
H       -3.3494231      -3.5560939      2.70107126
O       -5.2366585      -1.3278294      -0.7551829
H       -5.6441721      -1.9151828      -0.0933344
H       -5.9065375      -1.1361726      -1.4056642
O       -2.7533662      -2.6372988      -0.5694692
H       -2.3595876      -2.0867419      0.12383291
H       -3.5673570      -2.1928625      -0.8356273
O       -1.6900446      -1.2346355      1.61003840
H       -2.1154713      -1.7725604      2.29392958
H       -0.7649562      -1.5097850      1.58345282
O       0.89382184      -7.6497583      1.34072578
H       1.30749857      -7.0520415      0.69211131
H       1.15028954      -8.5366210      1.10346103
O       -0.5714427      -4.2428870      3.44492412
H       -1.4004781      -3.8062117      3.67777061
H       -0.1131815      -3.6497464      2.83154082
O       1.92710614      -5.7397699      -0.3082094
H       2.44929171      -5.1535759      0.25363335
H       1.16495657      -5.2219748      -0.6000739