33
 Ord_Energy   -104.2444760
O       -7.6883163      3.81924868      14.0240202
H       -8.4402713      3.65618229      13.4409809
H       -6.9326176      3.41742158      13.5798302
O       -8.1817054      -2.3959868      15.2675247
H       -7.4307575      -1.9076556      15.6515703
H       -8.2943992      -3.1863377      15.7879772
O       -9.8756017      2.98736930      12.3139286
H       -10.380950      3.49647927      11.6854134
H       -10.497837      2.69254661      13.0011387
O       -4.6668052      -0.9175856      13.6205997
H       -3.9027478      -1.3860459      13.2962656
H       -5.4479107      -1.3354849      13.2157116
O       -8.2746486      0.63845611      12.2284317
H       -8.8381586      1.40177774      12.0535097
H       -7.4230570      0.99648035      12.5228281
O       -11.406844      1.95991719      14.3328972
H       -10.848111      1.19526780      14.5484428
H       -11.834207      2.21511650      15.1466923
O       -5.9233598      1.59500384      13.3813457
H       -6.3577804      1.57240093      14.2470226
H       -5.3149662      0.84607345      13.3793030
O       -6.1150097      -0.8403058      16.1065502
H       -5.4845957      -0.8407667      15.3750963
H       -6.4553904      0.06154810      16.1760349
O       -7.0346570      -1.9000381      12.6709175
H       -7.4995431      -2.2027983      13.4611816
H       -7.5389490      -1.1490693      12.3321724
O       -7.4719462      1.63666344      15.7638378
H       -8.2365808      1.10672820      15.5000763
H       -7.6239013      2.52004123      15.3988409
O       -9.5056066      -0.0072750      14.6539373
H       -9.1047859      0.15518019      13.7863312
H       -9.2205171      -0.8874331      14.9269753