27
 Ord_Energy   -80.9327316
O       32.3578033      -17.338590      14.1025362
H       32.3983383      -18.126981      13.5466280
H       32.3735962      -16.595363      13.4887838
O       29.5065575      -20.013851      13.4923124
H       28.9733181      -20.701042      13.8814182
H       29.5908432      -19.307893      14.1606131
O       31.0681229      -17.431411      10.7628889
H       30.1267147      -17.516538      10.9754038
H       31.4842968      -18.215103      11.1407976
O       28.5144272      -17.866695      11.7735329
H       28.3286629      -17.187662      12.4345198
H       28.7189369      -18.664123      12.2756376
O       30.1699867      -14.084717      13.5378323
H       30.6211948      -13.545217      14.1832952
H       30.8643398      -14.461287      12.9747934
O       28.1869602      -15.934752      13.8757448
H       28.8518848      -15.237720      13.7449570
H       27.3711662      -15.495010      14.1009388
O       32.1461220      -15.311989      12.0268574
H       32.8675652      -14.971330      11.5052996
H       31.7437973      -16.032821      11.5082455
O       32.0131073      -19.625049      12.3553209
H       31.1448841      -19.857868      12.7232428
H       32.4855499      -20.444147      12.2302551
O       29.8251019      -17.907711      15.1401672
H       29.2376518      -17.207582      14.8309975
H       30.7250309      -17.632112      14.9091358