81
 Ord_Energy   -300.1782840
O       0.62471014      10.0054045      1.04084599
H       1.16129553      9.36011505      1.52842367
H       1.03818691      10.8727760      1.12381113
O       -5.9911131      11.6205521      3.17996478
H       -5.1835832      11.1311817      2.95562100
H       -6.3672351      11.2296114      3.97538066
O       -4.4108138      7.80274248      1.51202679
H       -5.3465495      7.77634525      1.28103459
H       -4.2005567      8.73334599      1.68786454
O       -5.2685637      12.6151361      -0.6560121
H       -5.3293819      13.0646429      -1.4951477
H       -4.3910408      12.1965942      -0.6282947
O       -4.1996331      7.37750626      4.26296806
H       -4.2600383      7.44330406      3.29932594
H       -3.2563316      7.29157400      4.45671749
O       -1.0694302      12.3425341      4.67152405
H       -1.6274275      12.9970131      4.23297739
H       -1.5151584      12.0329084      5.47137117
O       1.61397314      12.5815868      1.49306905
H       1.68212283      12.4325485      2.45423388
H       2.40626860      13.0394087      1.22708678
O       -1.2373354      9.99402046      3.19251823
H       -1.1128941      10.8038368      3.70531034
H       -0.6108142      10.0091763      2.45913410
O       -0.0945881      6.11278868      2.53232646
H       0.03800564      5.18283653      2.37024117
H       -0.7124136      6.43093491      1.84839535
O       1.63738799      12.0575962      4.12366629
H       1.85854208      11.1863308      4.47383451
H       0.73631841      12.2485991      4.42065191
O       -7.0475850      10.2572050      5.40161085
H       -7.1170206      9.39970112      4.94240475
H       -7.8267607      10.3453884      5.94254112
O       -2.4749546      14.2573643      3.16271496
H       -2.4454064      15.1866846      3.37691188
H       -3.3398907      14.1006908      2.74365425
O       -0.2219495      9.05421829      6.52342272
H       -0.6791994      8.41355228      5.96008730
H       -0.8652091      9.74406433      6.72007799
O       -4.8567142      13.8172760      1.96015775
H       -5.3393688      13.1619101      2.48538542
H       -5.0117225      13.5701838      1.04240263
O       2.09333420      9.44397068      5.16782713
H       1.27838326      9.31628418      5.68449974
H       2.81932712      9.24561787      5.75415897
O       -6.9827652      7.91882372      4.05910873
H       -6.0909328      7.57949305      4.21435976
H       -7.1061863      7.94485569      3.10256600
O       -1.8444789      7.06615353      0.70195174
H       -2.7686808      7.20905828      0.94745380
H       -1.6225122      7.77679014      0.09030897
O       -7.0097518      10.7767458      0.72385007
H       -6.8018412      11.1023350      1.61148381
H       -6.5107579      11.3456583      0.12778746
O       1.86472750      8.19279575      2.60786080
H       1.94272101      8.54512596      3.50357771
H       1.27595198      7.42874908      2.64881587
O       -4.2903385      9.75932121      5.79818249
H       -5.2219357      10.0066938      5.79791594
H       -4.2345104      8.94548702      5.28203011
O       -3.7312445      10.3922071      2.13497806
H       -2.8962733      10.2370462      2.59736061
H       -3.5011477      10.8184710      1.29949403
O       -1.1037459      13.2143021      0.88309330
H       -0.1705990      13.0760241      1.08215499
H       -1.4969552      13.6229057      1.66354799
O       -2.2301745      11.0962114      6.86740065
H       -2.9872250      10.6123190      6.48831701
H       -2.4861638      11.3633718      7.74592400
O       -1.1050298      9.31930351      -0.9143450
H       -0.4416430      9.57195091      -0.2463118
H       -0.6318522      9.17061424      -1.7293516
O       -1.4412990      7.57009840      4.50522470
H       -0.9661592      6.94514513      3.94447017
H       -1.3856428      8.42782402      4.05343628
O       -2.8213079      11.4692545      -0.2916600
H       -2.1929686      12.1134930      0.07438615
H       -2.3123076      10.7121716      -0.6031444
O       -7.1779475      8.11307049      1.18664944
H       -7.1546278      9.06203842      0.96729386
H       -7.8690710      7.72550631      0.65675926