90
 Ord_Energy   -338.2767125
O       -0.0093119      -2.9701995      -2.5861313
H       0.85457392      -3.1977674      -2.9506758
H       -0.4804062      -2.4195219      -3.2318019
O       1.16568629      -1.1886852      -0.7732270
H       1.56616356      -1.7890083      -0.1268166
H       0.70983550      -1.7358641      -1.4242158
O       1.70788115      2.47819033      -0.7736347
H       0.90529511      2.20549022      -1.2438275
H       2.40886488      1.92697859      -1.1465470
O       -0.2550745      0.33748757      0.96924331
H       0.18199987      -0.1708021      0.27127192
H       0.42841347      0.87032064      1.39106525
O       1.44129007      0.02882324      4.11355835
H       0.52110997      0.03501102      4.40391630
H       1.54448139      0.75303481      3.48755903
O       2.21035912      -3.0140205      1.02874894
H       2.56797544      -2.6796360      1.85950222
H       1.34656274      -3.4078962      1.22721806
O       -0.4672731      1.73969197      -2.3169050
H       -1.1129568      1.05366260      -2.0946581
H       -0.1632618      1.55196638      -3.2137812
O       0.07196285      4.60234022      0.21041631
H       -0.7627299      4.45092863      -0.2486575
H       0.72373783      4.03281666      -0.2192771
O       1.85980981      1.94251616      1.93353936
H       1.86929794      2.12565569      0.97997794
H       1.53062311      2.74621102      2.35786591
O       3.22308566      0.40634543      -1.7663442
H       4.04618121      0.07131624      -1.3917829
H       2.50924024      -0.1571205      -1.4263537
O       -2.5667585      -0.0223650      -1.9428576
H       -3.2759720      0.63111868      -1.9793310
H       -2.7363689      -0.5835034      -1.1750758
O       -1.5912130      -1.4900551      2.51640771
H       -1.0469114      -0.8895790      1.98310408
H       -1.6351534      -1.0841755      3.38852651
O       -2.4285034      2.02614371      1.17771598
H       -1.7075086      1.39243911      1.04748527
H       -2.3687357      2.65321656      0.44722861
O       -3.1603021      -1.7243412      0.21279368
H       -2.8454254      -2.5487776      -0.1783248
H       -2.7240702      -1.6535194      1.07348865
O       0.34390179      0.88607036      -4.8665620
H       0.47135117      1.33582402      -5.6972189
H       1.14685469      0.35729239      -4.7067775
O       2.62811546      -3.3307486      -3.4670716
H       3.02477800      -4.0294120      -3.9807470
H       3.13695347      -3.2715673      -2.6383638
O       -1.2990163      0.11086623      4.84019205
H       -1.6943952      0.10220042      5.70752001
H       -1.4109556      1.01370933      4.48996366
O       3.98363878      -3.1357925      -1.1267617
H       3.41176249      -3.2465841      -0.3542245
H       4.55486776      -2.3860760      -0.9235345
O       2.52896878      -0.5726192      -4.2744984
H       2.88162138      -0.1531855      -3.4768910
H       2.57271849      -1.5212720      -4.1108971
O       -1.4908571      2.55533358      3.72537058
H       -0.7958901      3.20137587      3.55951791
H       -1.9458484      2.44159274      2.87827478
O       5.39744959      -0.7339537      -0.4283006
H       6.32951664      -0.5361793      -0.3980184
H       5.01129315      -0.3981801      0.40101302
O       -1.8734297      -4.0034025      -0.8719081
H       -1.2012859      -3.6817028      -1.4965097
H       -2.2498956      -4.7905311      -1.2578372
O       0.61700125      4.27426415      2.84349185
H       0.93302661      5.09028478      3.22200466
H       0.35979912      4.47135360      1.92416834
O       4.19034862      0.18201280      1.81036640
H       3.94309497      -0.5351839      2.40853196
H       3.49235839      0.84162563      1.87948664
O       -4.5592724      2.01275257      -1.7605071
H       -4.7698851      1.55322636      -0.9271802
H       -5.3830907      2.13116638      -2.2254204
O       -0.3348634      -3.8295534      1.54616435
H       -0.8670327      -4.0013851      0.76058314
H       -0.7746811      -3.1047007      2.01038012
O       -4.7641817      0.62378936      0.55716205
H       -4.0216602      1.11833884      0.93597086
H       -4.4469082      -0.2836963      0.47431676
O       -1.4052673      -1.2619193      -4.1672432
H       -0.8698680      -0.5485698      -4.5349660
H       -1.9355088      -0.8598229      -3.4644820
O       3.17796957      -1.9054587      3.43010958
H       2.50772124      -1.2747214      3.75050245
H       3.52923633      -2.3507641      4.19627454
O       -2.2227204      3.57154088      -1.1755344
H       -1.5868902      3.03233297      -1.6702741
H       -3.0935836      3.24569892      -1.4345389