48
 Ord_Energy   -167.0695800
O       -1.6256794      1.63923061      -0.1296708
H       -1.5402863      2.41889787      0.43907142
H       -1.7650815      1.97374570      -1.0243276
O       -0.8490036      0.15875103      2.16007280
H       -0.9827192      0.49773934      1.26498759
H       -1.6898951      -0.2343645      2.42550230
O       -2.4878518      3.09663820      -2.3606560
H       -2.6696972      3.42324352      -3.2500512
H       -2.4241988      3.87966013      -1.7927920
O       -2.5410809      5.28560019      -0.6217190
H       -3.4769201      5.20790768      -0.3833712
H       -2.0424277      4.97785378      0.14534114
O       -5.0790824      2.42148423      -1.4854617
H       -4.1881475      2.57245970      -1.8348649
H       -4.9850974      1.76206005      -0.7868412
O       -3.3071293      1.89512622      4.29979563
H       -3.7665987      2.52420068      3.72784829
H       -2.3727576      2.13568473      4.26555634
O       -1.6338615      3.85566831      1.60918236
H       -2.5688905      3.75615978      1.84468913
H       -1.1300095      3.50991678      2.35574222
O       -5.2703685      4.83575201      -0.0879605
H       -5.2951269      3.98925495      -0.5596320
H       -5.6845407      5.48183107      -0.6726024
O       -6.0951972      6.49940634      -2.2030041
H       -6.5733599      7.31285429      -2.3381140
H       -5.1768193      6.66035080      -2.4854259
O       -3.4566576      4.36014795      -4.6815300
H       -3.4160983      4.26085806      -5.6286773
H       -4.3837776      4.21347094      -4.4207291
O       -4.3414645      3.37016892      2.11064696
H       -4.3819532      2.51721859      1.65296042
H       -4.7947006      4.00282431      1.53962326
O       -3.4706845      6.64539480      -2.9292645
H       -2.9750719      6.34183645      -2.1571304
H       -3.3450508      5.97179270      -3.6093878
O       -4.1952247      0.92842531      0.71322977
H       -3.2990908      1.09140909      0.38153058
H       -4.1030597      0.30149206      1.44070685
O       -5.9604892      4.01721191      -3.6568083
H       -6.1796035      4.84337139      -3.2078754
H       -5.8629169      3.35270739      -2.9619097
O       -3.5103380      -0.5111346      3.03273296
H       -3.4858641      0.29832485      3.57426667
H       -3.8643295      -1.2031568      3.58444571
O       -0.5251140      2.36806393      3.72559667
H       0.26648191      2.34592819      4.25614119
H       -0.5408456      1.54433727      3.20568395