66
 Ord_Energy   -238.7998890
O       -3.8097538      -1.7964575      -0.7978747
H       -3.3836865      -1.9720933      -1.6438851
H       -3.2344478      -1.1613786      -0.3427167
O       -4.8354688      0.27458265      3.36073855
H       -5.6167944      0.15692692      2.80709164
H       -4.3621068      -0.5698361      3.35249452
O       -2.4059645      -1.6446573      -3.2527190
H       -2.8519115      -0.7805832      -3.3130329
H       -2.5217958      -2.0708917      -4.0979353
O       -3.0023776      1.13833478      5.37186837
H       -3.7580439      0.98221923      4.78948491
H       -2.3558268      1.62804383      4.85070405
O       -2.2056148      0.04947805      0.44887478
H       -1.5739848      0.48608914      -0.1360590
H       -2.6493638      0.74373935      0.95068862
O       -6.8586271      -0.3651740      1.47071571
H       -7.7844250      -0.5439902      1.61403928
H       -6.4072781      -1.2291662      1.43576282
O       -3.7197429      0.73813133      -3.2230246
H       -3.2292736      1.54331737      -3.0191343
H       -4.4713856      0.72351165      -2.6187492
O       -2.3459101      3.09475714      -2.2929493
H       -2.3857475      3.92863643      -2.7529523
H       -3.0506254      3.10912150      -1.6182156
O       1.15106074      -2.3108455      0.25232894
H       0.78614494      -1.9208851      -0.5628237
H       1.75280578      -2.9992022      -0.0171714
O       -0.9528421      1.95660241      3.43088037
H       -0.6571901      1.06050949      3.64803763
H       -0.3418836      2.27275282      2.75463844
O       -5.5505557      0.40494093      -0.9760715
H       -4.9933158      -0.3866843      -0.9762600
H       -6.1366989      0.28920482      -0.2190657
O       -1.1498227      -2.0457613      1.83068233
H       -1.5075993      -1.2819642      1.35038099
H       -0.3872590      -2.3440045      1.32144982
O       -2.1010251      -1.3762194      5.87421957
H       -2.4378588      -0.4644900      5.80752750
H       -2.1480763      -1.6212451      6.79425439
O       -4.2957751      2.89615129      -0.4659711
H       -4.8036101      2.09531913      -0.6514840
H       -3.9687372      2.78972879      0.43816729
O       1.77690146      -0.0635915      1.93674858
H       1.33407014      -0.2951243      2.76357722
H       1.65870052      -0.8184291      1.34720165
O       -5.3546090      -2.6181717      1.39701840
H       -4.7439992      -2.6586914      2.14306430
H       -4.8106091      -2.5068856      0.60429238
O       -3.4056697      -2.1692203      3.44604544
H       -2.6426083      -2.2582920      2.85669337
H       -3.0415459      -2.0649219      4.33324449
O       0.06935291      -1.1201795      -1.9152166
H       -0.7306272      -1.3543141      -2.4001557
H       0.01899401      -0.1682767      -1.7517280
O       0.89889243      2.40948925      1.26933546
H       1.27748199      1.53426712      1.47369013
H       1.61662213      3.03612124      1.32048279
O       -0.0953174      -0.6680148      3.98312241
H       -0.4438889      -1.1811006      3.23782824
H       -0.6025871      -0.9528691      4.75142931
O       -3.3046310      2.09807180      1.98116010
H       -2.4895787      2.15364406      2.49772694
H       -3.9150082      1.53047445      2.47285358
O       -0.3942463      1.50542931      -1.0851617
H       -0.9834443      2.13888021      -1.5165070
H       0.04236827      1.94171652      -0.3426647