81
 Ord_Energy   -300.3631531
O       0.11723521      -2.7408298      -2.7402100
H       -0.4343362      -2.2564881      -3.3729622
H       0.96648602      -2.9288558      -3.1589909
O       1.22529247      -0.9385131      -0.8960097
H       0.79007747      -1.3935837      -1.6282371
H       1.55078392      -1.6366664      -0.3107678
O       1.54736797      2.46715690      -0.7577502
H       2.30416160      2.02393022      -1.1631305
H       0.76532576      2.14430459      -1.2284525
O       -0.5995167      -0.0274268      0.96435650
H       -0.1489371      -0.0152941      1.81810142
H       0.05964034      -0.2046717      0.28044452
O       0.73345947      0.27821128      3.38250928
H       1.33944657      0.85096323      2.88804351
H       0.08303816      0.87504685      3.78056532
O       1.79438619      -3.1693536      0.67007301
H       0.90711885      -3.5003409      0.48173862
H       1.83134005      -2.8868289      1.59288402
O       -0.6679334      1.71289188      -2.2619205
H       -0.3311239      1.62155634      -3.1625160
H       -1.3371053      1.02327623      -2.1534218
O       0.00512943      4.54331221      0.38227081
H       0.61499118      3.95639980      -0.0862837
H       -0.8636934      4.38220216      -0.0021162
O       2.29114610      2.00860413      1.89824186
H       1.97801859      2.80363283      2.34878668
H       2.01658426      2.10249402      0.97495101
O       3.34633875      0.61188032      -1.7456007
H       2.59614289      0.07391089      -1.4411992
H       4.13323166      0.21509605      -1.3556115
O       -2.7754355      -0.1115181      -2.1574864
H       -2.7563297      -0.7281368      -1.4132613
H       -3.4912327      0.51465822      -1.9954165
O       -2.3764967      1.99025296      1.58293095
H       -2.3924277      2.61817176      0.85095208
H       -1.7222801      1.32132429      1.32993534
O       -2.5565414      -1.7419661      0.11050981
H       -1.8919076      -1.1505467      0.49849025
H       -2.1002730      -2.5783137      -0.0280485
O       0.27717279      1.09944067      -4.8327584
H       1.11499464      0.62524685      -4.6828561
H       0.39351690      1.62076964      -5.6223373
O       2.72097133      -3.0402138      -3.7172878
H       3.17126075      -3.0888194      -2.8547270
H       3.13269797      -3.6904998      -4.2800682
O       3.85957811      -3.1368734      -1.2619805
H       4.42627880      -2.4106905      -0.9733816
H       3.22823091      -3.2900191      -0.5470631
O       2.55832195      -0.2313087      -4.2839868
H       2.64150726      -1.1873251      -4.1946589
H       2.95032526      0.14383559      -3.4833350
O       -0.9531944      2.33084093      3.98923739
H       -1.5904058      2.28639056      3.26274155
H       -0.3564997      3.05329933      3.75659839
O       5.31845713      -0.8596240      -0.3637367
H       4.87985651      -0.6574852      0.48300506
H       6.25434944      -0.7441690      -0.2240202
O       -0.7499194      -3.9234621      -0.4337176
H       -1.0232302      -4.8232584      -0.5970015
H       -0.4758369      -3.5562698      -1.2932050
O       0.91620684      4.24968361      2.92523739
H       0.52918853      4.42005526      2.04741375
H       1.17329569      5.09693415      3.27910874
O       3.96669369      -0.2681954      1.88956423
H       3.49875085      0.57704581      1.91954185
H       3.43548658      -0.8996542      2.38563159
O       -4.6935641      1.80817620      -1.3371582
H       -5.5941471      1.97848579      -1.5997168
H       -4.7341117      1.27578298      -0.5219510
O       -4.4847621      0.27318741      0.89461740
H       -4.0174237      -0.5549441      0.73374213
H       -3.8417421      0.86316232      1.31519459
O       -1.4059446      -1.1670733      -4.3476310
H       -2.0221676      -0.8207691      -3.6863530
H       -0.8885306      -0.4103729      -4.6487290
O       2.09823616      -2.0562851      3.23508448
H       2.27515058      -2.4452066      4.08813727
H       1.54383162      -1.2728314      3.39485967
O       -2.3688052      3.43971683      -0.8451255
H       -3.2383287      3.07581863      -1.0521990
H       -1.7476840      2.94744991      -1.4019106