66
 Ord_Energy   -238.3656852
O       -6.4369395      1.44646715      1.01288359
H       -5.7710325      2.12254461      0.82922949
H       -6.6490520      1.52727668      1.95131037
O       -4.4651920      2.09913257      -2.1335775
H       -4.4585038      2.50710057      -1.2581925
H       -3.8119921      2.58273777      -2.6536953
O       -6.5348464      1.68012837      3.82011406
H       -7.1724018      2.02618174      4.43835721
H       -5.8234897      2.34250998      3.74490555
O       -0.8141580      -1.4026231      2.53801358
H       -1.3324162      -1.2234417      3.33200885
H       -1.4543865      -1.5466081      1.82828865
O       -2.8343966      -1.3431765      0.59086529
H       -2.8592740      -1.1316007      -0.3523881
H       -3.7598845      -1.4200006      0.86136438
O       -3.4179814      -0.5246281      -2.0186917
H       -4.1977501      -1.0919048      -2.0535339
H       -3.7587946      0.38190555      -2.0280008
O       -5.5724936      -1.2398069      1.04681748
H       -5.7798248      -1.6021455      0.17688105
H       -5.8451154      -0.3108540      1.01897856
O       1.27431541      0.18298126      1.89858579
H       0.55093301      -0.4198503      2.15079748
H       2.08806889      -0.2957327      2.02878969
O       -1.0918887      0.97620819      -2.7487037
H       -0.6352712      1.07449671      -1.9012922
H       -1.7660753      0.29890588      -2.6149573
O       -2.4701633      -0.6695578      4.73480596
H       -2.4620706      -1.0746824      5.59799198
H       -3.3860084      -0.7273676      4.40697742
O       0.36488822      2.66101048      3.05350303
H       0.31398964      3.26618674      2.30482200
H       0.76554582      1.84920883      2.71694304
O       -2.3695012      4.73543164      -0.7060636
H       -2.2518835      4.37758008      -1.5952155
H       -1.5209649      4.63490349      -0.2582978
O       -4.2778592      3.20148891      0.47856776
H       -3.6638352      2.49334458      0.73816347
H       -3.7226467      3.90384653      0.10678369
O       -0.0961280      1.44441802      -0.1802678
H       0.49503311      0.94913874      0.40079835
H       -0.9604522      1.44708190      0.26066632
O       0.18215570      4.10047680      0.49657909
H       0.16834551      3.19338665      0.14795899
H       0.97871942      4.50957875      0.16465932
O       -5.9711130      -1.7897532      -1.7183468
H       -6.3948036      -0.9140956      -1.7826542
H       -6.5056661      -2.3937490      -2.2263793
O       -2.1544960      1.99632936      3.88374481
H       -2.1667787      1.12769714      4.30356186
H       -1.2341795      2.26481673      3.74017082
O       -4.9987036      -0.7211589      3.77447879
H       -5.5451758      0.06643992      3.88943680
H       -5.2395496      -1.0843143      2.91370322
O       -2.4817169      1.32807258      1.20492115
H       -2.6363558      0.38251867      1.08586144
H       -2.3478206      1.50084379      2.14655742
O       -6.9076559      0.75572738      -1.7019900
H       -6.1758812      1.28310997      -2.0501952
H       -6.9879287      1.02007019      -0.7760137
O       -4.5031296      3.40322034      3.38815942
H       -4.4263593      3.58851435      2.44637496
H       -3.6624181      3.00283347      3.65509483
O       -2.2220955      3.39014706      -3.2489421
H       -2.0187761      3.69951861      -4.1274898
H       -1.7515252      2.54536529      -3.1307964