18
 Ord_Energy   -45.5756760
O       23.3440819      2.32365704      24.6006241
H       23.0746250      1.41950357      24.4591293
H       23.3592129      2.45552206      25.5625629
O       25.0198231      4.93725634      27.6775589
H       24.7924252      5.44688892      26.8797283
H       25.8094482      5.33546257      28.0313263
O       21.7151070      4.66180563      25.5342712
H       21.9652328      4.02697706      24.8552837
H       21.9901962      4.23052216      26.3521404
O       25.0275803      4.26021719      23.4365749
H       24.4962749      3.52474999      23.7773705
H       25.0583000      4.14569569      22.4895992
O       23.2501411      2.91935658      27.3378792
H       23.0316277      2.52747965      28.1786995
H       23.9230976      3.60076118      27.5159130
O       24.1794872      6.11287689      25.3705750
H       24.5740318      5.60240936      24.6494694
H       23.2503681      5.84918261      25.3895149