18
 Ord_Energy   -46.0658035
O       22.7376976      2.09290957      27.0957775
H       23.4834194      2.60238504      26.7597294
H       22.0767498      2.74917865      27.3581562
O       22.2665195      0.49656269      24.9259357
H       21.4276562      0.04800754      24.9802246
H       22.3629665      0.98852992      25.7602444
O       22.7031517      5.65586090      25.8580666
H       22.5250244      5.99723005      24.9843712
H       23.4325294      5.02620077      25.7503796
O       24.6911869      3.68836546      25.6122494
H       24.5329418      3.11565852      24.8414478
H       25.6280117      3.65913272      25.7883415
O       21.0551205      4.26475382      27.6224918
H       21.5608845      4.83014345      27.0164967
H       20.8632450      4.80714655      28.3837643
O       24.1157475      1.98368192      23.5689716
H       23.4410858      1.40566576      23.9656868
H       24.3456440      1.58828318      22.7330284