27
 Ord_Energy   -82.2944107
O       30.3789349      -17.180936      16.0632553
H       29.6348457      -17.554191      15.5557585
H       30.2091579      -17.371444      16.9814053
O       28.9921799      -14.577582      12.4943838
H       29.0013046      -13.797476      11.9459324
H       29.5291481      -15.247634      12.0330973
O       28.4518890      -18.200202      14.4775019
H       28.9033451      -18.563364      13.7062101
H       27.8230782      -17.542848      14.1473188
O       26.8894596      -16.128107      13.4930220
H       26.0980682      -15.606730      13.6008387
H       27.5615406      -15.528153      13.1354504
O       30.2116833      -19.071474      12.3899240
H       30.3353519      -19.941995      12.0213442
H       30.9480381      -18.921526      13.0099373
O       30.9742813      -14.831478      14.5893650
H       30.7243156      -15.562566      15.1707888
H       30.2213650      -14.673442      14.0074663
O       32.1621132      -18.360776      14.1609812
H       31.6614399      -18.026281      14.9166651
H       32.5826073      -17.586128      13.7656555
O       32.9131584      -15.876284      12.9920330
H       32.2921028      -15.426229      13.5934687
H       33.7011261      -15.341520      12.9576197
O       30.6164665      -16.439224      11.3833218
H       31.4807491      -16.267150      11.7789392
H       30.4037914      -17.355318      11.6029377