51
 Ord_Energy   -178.0376740
O       -8.5418214      0.54268938      2.99647737
H       -9.3931398      0.26462668      2.62675691
H       -8.3648834      1.41899610      2.63905239
O       -11.142611      -0.1483194      2.28982902
H       -11.393315      -0.2030518      3.22054172
H       -11.713432      0.52571952      1.90243292
O       -8.6615715      -0.1554183      5.60574627
H       -8.0663604      -0.8786054      5.78134060
H       -8.5452213      0.07900297      4.66537333
O       -14.348367      2.57079506      3.45576429
H       -14.378320      3.49431634      3.73597717
H       -14.272224      2.04895091      4.26285648
O       -14.200587      5.23930740      4.46107101
H       -14.839616      5.94512367      4.42171717
H       -13.368304      5.58981800      4.09263849
O       -10.877665      3.90919852      2.00077176
H       -11.466045      3.24578071      1.61713850
H       -9.9622755      3.64207435      1.84403789
O       -12.870666      3.80520344      6.46709251
H       -13.272594      2.92709351      6.45745611
H       -13.415848      4.37076807      5.90328455
O       -13.862036      1.18176186      5.94796133
H       -14.419141      0.55462009      6.40177107
H       -13.040756      0.71321899      5.72008467
O       -10.996961      2.83725476      4.59128618
H       -11.633861      3.31140518      5.13994598
H       -10.970640      3.25344634      3.72303820
O       -7.8274569      4.48509979      4.34995747
H       -7.9437522      3.83638835      5.05750799
H       -8.3873891      5.23284006      4.59023666
O       -8.1670131      3.21548510      1.98728311
H       -7.9904451      3.69766736      2.81579399
H       -7.4424953      3.40684104      1.39762521
O       -12.792831      1.98362637      1.30645204
H       -13.350511      1.86770999      0.54150587
H       -13.382969      2.17454767      2.05729389
O       -8.7883386      2.62745523      6.22527885
H       -9.5301427      2.74259329      5.60822725
H       -8.6018648      1.68269742      6.21262074
O       -9.6692352      6.46364641      5.32093859
H       -9.9114484      5.90580225      6.08133221
H       -9.3768081      7.29855251      5.67788935
O       -11.820434      6.04277039      3.51398587
H       -11.086782      6.25076485      4.10560513
H       -11.478491      5.41130924      2.86590195
O       -11.446088      0.20080207      5.12049913
H       -11.286953      1.11849129      4.83971071
H       -10.590351      -0.1138333      5.43365908
O       -10.330935      4.74729967      7.33024645
H       -11.236676      4.43058157      7.21580172
H       -9.7517118      3.98612261      7.19096613