72
 Ord_Energy   -263.8525568
O       17.0438220      9.99906193      -15.721587
H       16.1465233      9.76394725      -15.438230
H       17.6294216      9.81751795      -14.979056
O       13.2653637      5.06148152      -16.471531
H       13.7215962      5.80809550      -16.877809
H       13.5880699      4.27584747      -16.929124
O       17.7428986      4.75447696      -12.086875
H       18.5548835      4.57441010      -12.574193
H       17.4602954      5.64233412      -12.358701
O       18.8554547      4.56209499      -18.670061
H       17.8938367      4.63305349      -18.808857
H       19.2346517      4.28984663      -19.501372
O       16.1705157      4.84435431      -18.932204
H       15.6215770      4.10342641      -18.643877
H       15.7717178      5.63044314      -18.543337
O       14.0065109      6.81376679      -10.080713
H       13.9162114      7.27467078      -9.2509931
H       14.7496298      6.19308345      -9.9770961
O       13.5691793      5.00849193      -13.735122
H       14.2904176      4.39299830      -13.554384
H       13.3914072      4.99304189      -14.686046
O       16.8955679      7.15560689      -13.040511
H       17.4352352      7.95163558      -13.116345
H       15.9693610      7.40459439      -12.921878
O       16.3646393      3.21425196      -15.578601
H       16.0895620      3.00745434      -14.675179
H       16.5154227      4.17302319      -15.601825
O       12.5140078      4.59704538      -11.162250
H       12.6745379      4.72784374      -12.107592
H       12.8442396      5.39465250      -10.730854
O       20.1331703      7.19328848      -14.627946
H       20.1318669      6.29214672      -14.285245
H       19.8687867      7.12918856      -15.556512
O       14.6515403      2.84597231      -17.656542
H       15.2676713      2.87528796      -16.902766
H       14.3964986      1.93502612      -17.773743
O       19.1165427      3.30825531      -16.088081
H       18.1895754      3.09112454      -15.918348
H       19.1374409      3.66882664      -16.981596
O       18.9628165      6.89104477      -17.135588
H       19.0362182      6.14218068      -17.741196
H       18.4312025      7.57236170      -17.567835
O       16.8629550      5.92958120      -15.528759
H       16.8755952      6.36589416      -14.667222
H       17.6549806      6.20778268      -16.006992
O       14.5221762      9.02592410      -15.164710
H       14.2832103      8.59046764      -14.336022
H       14.4491983      8.36043661      -15.855367
O       14.2955087      2.65132461      -10.532087
H       13.9140344      1.92422647      -10.048641
H       13.5739466      3.28077173      -10.713845
O       20.0121398      4.44616326      -13.777256
H       20.8226072      4.00741152      -13.529198
H       19.7208182      4.03456806      -14.609635
O       15.6185568      3.18443819      -12.955140
H       16.3791739      3.70025221      -12.648033
H       15.1796048      2.84106529      -12.168194
O       15.9546026      4.90709908      -9.8750334
H       15.4748904      4.07421259      -9.9663948
H       16.6919982      4.85619345      -10.495993
O       15.1292553      7.04739547      -17.336672
H       15.6655302      6.63190504      -16.640412
H       15.6908605      7.73087821      -17.723926
O       14.1775432      7.52377616      -12.796265
H       14.0570443      7.44477460      -11.842060
H       13.9227802      6.66692236      -13.173067
O       18.7097310      9.20854477      -13.536005
H       19.2930847      8.52135081      -13.907940
H       19.2553478      9.77566488      -12.998347
O       17.1806676      8.84019045      -18.121120
H       17.1675851      9.32605566      -17.273884
H       17.2320232      9.49269057      -18.813718