33
 Ord_Energy   -104.4299470
O       -10.772317      -0.9185314      12.3148985
H       -11.167165      -0.1145542      12.6948957
H       -11.481149      -1.4036291      11.9011688
O       -4.8455958      -1.6824805      15.4407902
H       -5.6180243      -1.3417462      15.9266739
H       -4.3223619      -2.1755430      16.0662899
O       -7.0856862      -0.5640050      16.5299778
H       -6.9667067      0.37857217      16.3597145
H       -7.8011679      -0.8540345      15.9476776
O       -6.5042643      2.10728812      15.5617867
H       -6.0566053      2.83789563      15.9787741
H       -5.8615026      1.69008338      14.9594364
O       -11.508743      1.42541671      13.5350170
H       -12.074029      1.88014531      14.1538000
H       -10.597082      1.63289249      13.7996416
O       -5.8638558      -0.2086728      11.4691353
H       -6.7835469      0.10052685      11.3917532
H       -5.4943404      -0.1916761      10.5904627
O       -8.8104543      1.54093063      14.1022844
H       -8.7763347      0.57981199      14.2321892
H       -8.0688676      1.90555036      14.5984564
O       -8.8184862      -1.2409787      14.3804150
H       -9.5534524      -1.3206937      13.7621431
H       -8.0595417      -1.6763107      13.9598885
O       -6.5577378      -2.3309285      13.2486000
H       -5.8968467      -2.2671315      13.9496918
H       -6.2760262      -1.7101219      12.5647335
O       -4.8106904      0.74397594      13.9437943
H       -4.6613745      -0.0829085      14.4207487
H       -5.1128606      0.49119213      13.0623951
O       -8.4495220      0.62592632      11.4535809
H       -9.1931486      0.01559592      11.5113058
H       -8.5039529      1.15089047      12.2637501