54
 Ord_Energy   -190.3184660
O       -7.0062241      9.91384315      0.89657444
H       -6.5725665      10.4512691      0.21772130
H       -6.7893228      10.3156099      1.74681091
O       -4.2368621      12.4187107      1.32725036
H       -4.6966509      12.2453289      0.49437007
H       -4.8292541      12.1102571      2.02418613
O       -6.2024607      6.71261024      -2.8438592
H       -6.9088487      7.37281752      -2.9110643
H       -6.3348579      6.26125002      -2.0028653
O       -5.8543710      10.9985666      3.23413539
H       -6.1068191      11.1619253      4.13869143
H       -5.1524281      10.3234663      3.25311494
O       -5.4271812      11.2658558      -0.9515979
H       -5.7553563      11.2527161      -1.8599480
H       -4.7049112      10.6222849      -0.9181611
O       -3.4223659      9.27163792      -0.7647096
H       -3.9644620      8.66224194      -0.2410199
H       -2.8255472      9.71256065      -0.1477061
O       -4.2971172      8.35473919      -6.0777130
H       -4.1200280      8.44171715      -5.1260414
H       -3.4491484      8.35110283      -6.5146570
O       -8.1525325      8.71092606      -3.1008427
H       -7.5358967      9.45278740      -3.1736559
H       -8.4721345      8.53475761      -3.9947922
O       -5.1564178      7.80590963      0.82672167
H       -5.8288459      8.50250530      0.87004554
H       -5.6124968      7.01151133      0.52774310
O       -2.1293664      10.6965265      1.28956532
H       -1.2903224      11.1221800      1.44247162
H       -2.8095412      11.3937397      1.31713259
O       -3.8761398      9.13877296      2.96530008
H       -4.2439560      8.50240707      2.33729267
H       -3.1572873      9.58308792      2.49873161
O       -8.5639200      8.12852001      -5.8319912
H       -9.2547493      7.80100727      -6.4013853
H       -7.8512759      7.46464300      -5.8407282
O       -6.1142630      10.5866442      -3.5351510
H       -6.3047633      10.6586008      -4.4812059
H       -5.4004583      9.93770027      -3.4605257
O       -6.5516805      10.1721125      -6.2187705
H       -7.3080377      9.57247448      -6.2104702
H       -5.7745690      9.61021900      -6.3323845
O       -8.5527124      7.95607424      -0.4132986
H       -8.1818714      8.68712234      0.09896572
H       -8.5882206      8.26123810      -1.3298006
O       -4.1715817      8.53292274      -3.3284196
H       -3.7371580      8.77839565      -2.5013182
H       -4.8012561      7.82649755      -3.1181163
O       -6.8728799      5.84159470      -0.2467010
H       -7.2879166      5.05815554      0.10282194
H       -7.5539903      6.54044342      -0.2660065
O       -6.4097533      6.47010899      -5.6551008
H       -6.3043565      6.33255386      -4.7040743
H       -5.6481638      6.99728632      -5.9282155