30
 Ord_Energy   -93.1064377
O       4.69661617      2.80311179      7.17089128
H       3.76744485      2.74659348      7.37383604
H       5.02145433      1.88632286      7.14446259
O       5.71615410      0.28363168      7.08360672
H       6.56829977      0.23939516      7.53566456
H       5.85519171      -0.1128622      6.21498203
O       8.34556675      0.30493972      8.16213608
H       8.58562088      1.22849607      7.96574116
H       8.71097565      0.10191424      9.01855373
O       7.57430935      3.26770902      3.99126887
H       8.44875813      2.90758657      4.18650293
H       7.27842236      3.70093608      4.80109167
O       10.0122795      2.05964804      4.81247520
H       9.68879700      1.15563011      4.97759342
H       10.8749571      1.97506261      4.41646004
O       5.95561314      1.36608851      2.91492462
H       6.51690531      2.07535076      3.27355886
H       5.47963619      1.75168467      2.18519711
O       6.34165525      -0.7868365      4.51102018
H       6.17364502      -0.0378467      3.91225266
H       5.97939920      -1.5621925      4.09081650
O       8.98654938      -0.3685641      5.46665001
H       8.83053207      -0.2856283      6.41640663
H       8.12778950      -0.5769529      5.07732630
O       6.80115747      4.37275600      6.50850201
H       6.59756756      5.28063011      6.71657324
H       6.01902962      3.84628344      6.75106764
O       9.01692009      2.81614518      7.37510681
H       9.47512817      2.66243792      6.53864050
H       8.27635384      3.39908719      7.16485167