75
 Ord_Energy   -277.0604860
O       17.4132938      7.89300346      -12.764464
H       17.9322262      8.15389347      -11.992005
H       16.7258663      8.56790257      -12.880963
O       12.0920677      11.2542372      -11.119286
H       12.8223829      10.6610641      -10.873547
H       11.7897511      11.6677542      -10.314962
O       18.7008629      8.25487041      -15.145288
H       19.1372776      7.46263695      -15.447342
H       18.2596989      8.03143024      -14.308000
O       11.0160141      9.37190342      -12.984968
H       11.3003244      9.74660492      -13.827690
H       11.2643690      10.0169630      -12.312095
O       15.6266098      5.86282921      -12.125926
H       16.0332127      5.32539129      -11.434455
H       16.2836285      6.52928114      -12.372549
O       18.6937160      8.85369587      -10.519008
H       17.9190140      9.25169086      -10.093338
H       19.2514229      9.58270741      -10.816891
O       19.9668331      11.1265860      -11.530756
H       20.8089504      11.5535851      -11.400292
H       19.8490067      11.0226622      -12.492282
O       16.4695530      9.96572876      -9.2573509
H       15.6257153      9.82688808      -9.7104663
H       16.4554176      9.39477253      -8.4788227
O       11.4080677      6.73893690      -12.554028
H       10.5768051      6.28128195      -12.643835
H       11.2280674      7.68397760      -12.708025
O       16.7056675      9.87541103      -16.403595
H       15.8442469      9.49374676      -16.186351
H       17.3684921      9.24822712      -16.089798
O       13.7415056      6.47662735      -14.209278
H       12.9134340      6.49492168      -13.714170
H       14.4057131      6.13145494      -13.600359
O       14.2820702      8.86384678      -15.445631
H       13.4773455      9.39557934      -15.486256
H       14.0563183      7.98220587      -15.111003
O       12.0998898      10.6248083      -15.296992
H       11.6198807      11.0735512      -15.987687
H       12.4801464      11.3155203      -14.723065
O       16.4061775      7.98299217      -7.2497901
H       15.7809877      7.32033587      -7.5954246
H       16.3032742      7.98946953      -6.3019814
O       14.1318102      9.49183846      -10.682820
H       14.5558329      9.56083965      -11.552912
H       13.8454723      8.57406330      -10.584091
O       18.3664494      6.62924242      -8.8672761
H       18.6548195      7.33362818      -9.4633855
H       17.8233662      7.06719923      -8.2004537
O       15.8793793      12.4286690      -13.184174
H       16.4109364      12.4466667      -12.373401
H       16.4703598      12.5005884      -13.944137
O       16.8250103      4.64006329      -9.8822155
H       17.2260094      3.79170966      -9.7134923
H       17.4459991      5.31458378      -9.5523157
O       15.4126816      9.70875740      -13.071550
H       15.6060486      10.6531248      -13.137274
H       14.9828548      9.43218994      -13.891489
O       19.5380116      10.8119116      -14.174431
H       19.3719749      9.93437195      -14.538978
H       18.9120045      11.4022179      -14.611543
O       17.4878826      12.2878695      -15.481538
H       17.5910721      12.9033279      -16.202234
H       17.1579819      11.4549408      -15.866852
O       13.4580126      6.81793261      -10.656141
H       14.2062569      6.49466324      -11.180915
H       12.6728020      6.73143578      -11.210387
O       17.3616676      12.1563015      -10.893273
H       18.2744770      11.8986912      -11.070988
H       17.0382347      11.5390673      -10.225807
O       13.1061783      12.4044476      -13.535665
H       12.7571497      12.1454172      -12.674127
H       14.0571566      12.5331812      -13.417461
O       14.8408442      6.06129694      -8.3542289
H       14.2104874      6.32273674      -9.0390386
H       15.4463177      5.44713593      -8.7873621