48
 Ord_Energy   -166.9993900
O       -2.6016471      5.69303989      -0.5004576
H       -3.2726254      5.23917866      -1.0319557
H       -1.7569026      5.28678179      -0.7306538
O       -1.2598819      2.63124681      1.29090309
H       -1.8667837      3.22114301      1.75489926
H       -0.9617371      3.11449790      0.50580382
O       -6.9742970      4.68283319      1.04088044
H       -7.0003914      5.15817833      0.20096049
H       -6.4794764      3.86984468      0.87307292
O       -4.6916832      7.46790552      0.22138286
H       -3.8472912      7.06343937      -0.0181290
H       -4.8769159      7.18467522      1.12557781
O       -0.4123984      0.67139488      -2.9437863
H       -1.1902260      1.24245441      -2.9955751
H       -0.6429517      -0.0326289      -2.3243162
O       -1.0187054      -1.0523595      -0.7236338
H       -0.3780238      -0.5319003      -0.2054970
H       -0.8454045      -1.9708508      -0.5365499
O       -2.9664540      0.88143480      -0.0812229
H       -2.3850660      1.43124115      0.46604061
H       -2.4652218      0.08309351      -0.2860225
O       1.55325484      2.11180162      -1.7248746
H       0.92294383      1.58191466      -2.2461655
H       2.37152767      2.12886977      -2.2135441
O       -0.5649077      3.87425900      -1.1306453
H       0.27760327      3.45102596      -1.3345431
H       -1.2347624      3.40487623      -1.6510019
O       -3.2665848      4.47931814      1.92968547
H       -2.9859912      4.96033144      1.13627720
H       -3.9046778      5.04778147      2.37741041
O       -6.5515432      6.23584223      -1.3469914
H       -7.0972275      6.84316921      -1.8388969
H       -5.9243450      6.77318382      -0.8302996
O       -4.9755268      2.74063516      0.51911682
H       -4.4819479      1.93024528      0.34226418
H       -4.4053607      3.28614330      1.08127677
O       -4.6239790      4.23925447      -1.8157091
H       -5.3314719      4.89404058      -1.8541761
H       -4.8163709      3.67805862      -1.0491272
O       -2.5856981      2.41009760      -2.4072024
H       -3.3173382      3.03704810      -2.4640829
H       -2.7821035      1.83435678      -1.6530470
O       -5.3883309      6.16388941      2.69255924
H       -5.8308835      6.45495224      3.48503542
H       -6.0347490      5.64402008      2.18171310
O       0.64941520      0.65852916      0.58577198
H       0.09190364      1.30140400      1.04370201
H       1.11035848      1.15310943      -0.1037706