42
 Ord_Energy   -142.3113860
O       -4.0409069      5.70710182      -4.6676359
H       -3.3811020      5.12704945      -4.2632794
H       -4.7401804      5.11908436      -4.9803457
O       -5.6983594      3.68960929      -5.8332834
H       -5.0455198      2.98037934      -5.7098045
H       -6.5569028      3.30088377      -5.6863284
O       -2.1324749      3.72847509      -4.0531597
H       -1.3831491      3.33258128      -3.5917980
H       -2.6259486      3.01319575      -4.4784736
O       -2.4825301      -0.6318997      -5.4603624
H       -2.7078051      -1.5283576      -5.2280817
H       -1.6496315      -0.4217981      -4.9998064
O       0.25814894      2.60578012      -3.0861775
H       0.81652844      2.84047270      -2.3500771
H       0.72319376      2.88722634      -3.8961153
O       -2.8621528      6.70499468      -6.9093074
H       -3.3008465      6.45418692      -6.0761685
H       -2.8977687      7.65600729      -6.9646821
O       -3.5933883      1.91176414      -5.6267967
H       -3.3386724      0.98981047      -5.4988355
H       -3.1651043      2.20501328      -6.4455561
O       1.30904663      0.74268901      -6.7500433
H       1.99268115      0.29720053      -7.2431135
H       0.47481781      0.59275711      -7.2292833
O       -1.1296832      0.31942466      -7.8579692
H       -1.5558384      1.16897273      -8.0422811
H       -1.6655372      -0.1086655      -7.1805357
O       -0.9123005      4.71589136      -6.3912029
H       -1.3032741      4.42394257      -5.5539655
H       -1.4173383      5.49253893      -6.6611995
O       -2.3170476      2.83770633      -7.9215750
H       -3.0536503      3.38542199      -8.2288465
H       -1.6995048      3.44221282      -7.4875960
O       1.33266079      3.28145981      -5.4762425
H       0.70082909      3.85935211      -5.9244260
H       1.39153492      2.47263908      -6.0012340
O       -4.3778419      4.63641882      -8.2378692
H       -4.9674019      4.37810230      -7.5189905
H       -3.9079423      5.41837502      -7.9205021
O       -0.1160400      0.08474020      -4.3619751
H       0.47399232      0.22919332      -5.1133012
H       -0.0210786      0.86419135      -3.8016486