51
 Ord_Energy   -177.8267970
O       0.26901215      3.74756956      0.17735738
H       0.18391836      3.94342589      -0.7688442
H       0.55666339      4.54806519      0.63407952
O       -1.0688644      5.45607805      3.57050252
H       -1.3022159      4.51870394      3.57440615
H       -1.8611016      5.91881132      3.26499248
O       -1.3861335      7.47473669      0.25827178
H       -0.5954408      7.10196257      0.66568571
H       -2.0985312      7.33865213      0.89797831
O       0.73294294      6.09210634      1.64596152
H       0.14958528      5.87332726      2.39544272
H       1.50691605      6.51123190      2.01251984
O       -5.9755015      3.83730721      -0.0482741
H       -5.9449367      4.42866182      0.71331227
H       -5.3676486      4.19282961      -0.7108841
O       -2.4854402      4.20450640      0.64821589
H       -1.5599004      4.09552145      0.39584547
H       -3.0074574      4.22018385      -0.1614331
O       -0.3481686      1.30366814      1.25562954
H       -0.0357960      2.14059520      0.86920965
H       0.40545195      0.72020435      1.28990436
O       -2.6050636      0.98354673      -0.5167301
H       -1.8864796      1.01920748      0.12473790
H       -3.4298610      1.09089494      -0.0257536
O       -2.0049507      2.83182716      2.99844384
H       -2.3152458      3.29646850      2.20338368
H       -1.4074318      2.15614009      2.66058922
O       -3.2590148      6.42875004      2.06809402
H       -2.9481558      5.67489862      1.53949487
H       -4.1722631      6.21240664      2.28665328
O       -3.8866205      4.53780508      -1.7718035
H       -3.4970943      3.79375815      -2.2509443
H       -3.3588390      5.31906605      -1.9836812
O       -5.7709584      5.20161724      2.49497509
H       -5.4363374      4.34954929      2.82843256
H       -6.5417347      5.41295338      3.01540065
O       -4.7896051      2.75776649      3.21566701
H       -3.8379283      2.72066236      3.37809277
H       -4.9365239      2.18316650      2.45360231
O       -5.1392498      1.37489808      0.73289478
H       -5.4746642      2.22852588      0.40431827
H       -5.8371539      0.73817819      0.59871256
O       -2.0502975      6.62210751      -2.2281920
H       -1.8096487      6.95991421      -1.3471745
H       -2.0731339      7.37552738      -2.8121171
O       -0.3950813      4.28960943      -2.3990137
H       -0.8825420      5.12238646      -2.4297397
H       -1.0262186      3.60091519      -2.6446781
O       -2.4624095      2.36467671      -2.8309023
H       -2.5899577      1.76658118      -3.5620424
H       -2.4916858      1.82651281      -2.0188305