18
 Ord_Energy   -45.7945213
O       22.7486687      1.36122775      26.6739559
H       22.5519562      0.83641344      27.4442997
H       23.2687969      2.11984491      26.9916592
O       24.2458801      3.53892374      27.3409119
H       23.7930927      4.33698750      27.0376930
H       25.0268154      3.46293044      26.7762241
O       23.9284477      4.18676901      23.6349239
H       23.9095364      4.41177416      22.7085857
H       23.3682518      3.39733958      23.7436180
O       23.1420193      5.72248745      25.9158077
H       23.5393085      6.58975887      25.8635445
H       23.3733044      5.27803230      25.0873222
O       26.1450672      3.37661839      25.2436905
H       25.4548035      3.66298318      24.6279716
H       26.4632816      2.54275322      24.9024544
O       22.4139977      1.97268653      24.0379772
H       21.5916862      1.59226108      23.7414265
H       22.5109043      1.70672452      24.9687805