18
 Ord_Energy   -45.9105644
O       22.4830647      4.56617403      27.3215256
H       21.9690342      5.27411509      27.7020779
H       22.2518349      4.53282452      26.3790112
O       22.2335224      1.83717704      26.4369488
H       21.9631443      2.30131459      25.6353703
H       22.2731285      2.54148006      27.0956898
O       25.3122101      4.14879131      26.8322582
H       24.4247265      4.35525894      27.1507988
H       25.3255520      3.19019818      26.7155895
O       22.0076046      4.06947517      24.5816498
H       22.9395523      3.94642115      24.3267918
H       21.5491943      4.37285805      23.8034077
O       24.6627159      3.62715006      24.1638489
H       24.8191051      2.70567250      24.4024124
H       25.0031281      4.10778141      24.9328918
O       24.9164734      1.35489881      25.9354877
H       23.9680786      1.39239895      26.1421986
H       25.2030773      0.46961284      26.1432724