87
 Ord_Energy   -325.2706273
O       -1.3489874      -2.1314458      -3.5114915
H       -1.0397037      -1.2182026      -3.5929936
H       -2.3083253      -2.0913198      -3.5995912
O       3.12984300      -3.8175331      -3.8644870
H       2.34791357      -3.4853586      -4.3409953
H       3.37511567      -4.6386505      -4.2820791
O       -4.6247813      0.58366365      0.93986892
H       -5.4193410      0.70768941      1.45162195
H       -3.8757051      0.76001554      1.53829459
O       -3.6741175      -1.4705322      -0.6875134
H       -3.3048572      -2.1693566      -0.1322727
H       -4.0659815      -0.8037942      -0.1065505
O       4.67224854      -1.4875787      -3.2174579
H       4.09719848      -0.8281123      -3.6313951
H       4.28093782      -2.3389341      -3.4432652
O       2.02489891      -3.1784103      -1.3652480
H       1.81444491      -2.2449165      -1.5299663
H       2.44993874      -3.5101865      -2.1650199
O       0.77171980      -0.2184779      -6.1687944
H       0.12931156      0.10044049      -5.5113862
H       0.59945202      0.25950043      -6.9757140
O       -4.1401706      -1.6143744      -3.3692519
H       -4.9001963      -2.1598417      -3.5547077
H       -4.0426092      -1.5847193      -2.4008430
O       3.04788508      1.26215763      -0.4471024
H       3.00069471      1.87444458      -1.1980588
H       3.85842714      0.74384983      -0.5232638
O       -0.8400654      0.56426914      -4.0949128
H       -1.7895852      0.74244002      -4.0610973
H       -0.4134392      1.32985311      -3.6878894
O       -2.4287708      3.67194101      -4.4635712
H       -3.0589827      4.35709262      -4.2482940
H       -2.9118336      2.83822390      -4.3660019
O       -0.0915868      3.02864869      -3.0330498
H       -0.4287742      2.98081182      -2.1262638
H       -0.8066107      3.38705915      -3.5760018
O       -3.5412435      1.14456038      -3.8031067
H       -3.8798001      0.24301591      -3.7912950
H       -3.6977824      1.51150876      -2.9161917
O       -0.6961493      -3.7156322      -1.2845768
H       0.26723725      -3.6641198      -1.2325835
H       -0.9446381      -3.1931982      -2.0582330
O       5.18076925      -0.5667343      -0.7223454
H       6.11795887      -0.4120725      -0.6397188
H       5.03629245      -0.9255157      -1.6164300
O       -3.8485707      2.18226592      -1.3083034
H       -4.2108713      1.71052642      -0.5503723
H       -2.9703888      2.48174929      -1.0347060
O       2.69496248      2.68943809      -2.7516135
H       2.82815874      1.94556968      -3.3542162
H       1.77011652      2.94636040      -2.8675454
O       -2.2889377      -3.4188658      0.82057767
H       -1.6887171      -3.5840781      0.06753774
H       -2.5517149      -4.2699612      1.15873577
O       1.58850991      1.34848368      1.89665678
H       1.67844957      0.45386418      2.24037960
H       2.13015264      1.38863479      1.09538451
O       -0.5172794      2.98337629      2.15307731
H       -0.2600593      3.74664014      2.66221110
H       0.26791386      2.40684767      2.09379500
O       2.67717049      0.22109116      -4.1183319
H       2.15165679      0.09572530      -4.9153692
H       2.13259350      -0.0782803      -3.3731551
O       -2.4955168      0.97416584      2.53733975
H       -1.9473570      0.17908728      2.47863834
H       -1.8872231      1.72066227      2.48077466
O       -1.1122187      -0.1588672      -0.5785988
H       -1.9559265      -0.5499392      -0.8279810
H       -0.9338747      -0.4634989      0.32270974
O       -0.9131717      -1.2510723      1.97541319
H       -0.0014810      -1.4099083      2.25230368
H       -1.3137990      -2.0883577      1.71011181
O       1.76411240      -1.4012496      2.72478630
H       2.38638526      -1.7193943      2.04629949
H       2.13430797      -1.6450505      3.56900349
O       0.89971163      -2.8583311      -5.0895389
H       0.92682008      -2.0457942      -5.6088043
H       0.09275387      -2.7942171      -4.5634236
O       -1.1923819      2.60513508      -0.5404320
H       -0.9629361      2.88086519      0.35428800
H       -1.1399114      1.63692081      -0.5506334
O       3.46265947      -2.2507889      0.82238278
H       4.11804673      -1.6955284      0.38450618
H       2.99566441      -2.7144811      0.11324955
O       1.36422042      -0.5271019      -1.7622000
H       1.91881142      0.07116825      -1.2415090
H       0.45872459      -0.4194283      -1.4442952