42
 Ord_Energy   -142.1330870
O       0.42340687      -0.6484859      -7.9478678
H       1.01459885      -0.8913776      -7.2234735
H       0.28992715      0.30398914      -7.8659186
O       -1.8684673      -1.6653248      -6.8446130
H       -1.1304284      -1.4030921      -7.4133362
H       -1.4819328      -1.8171513      -5.9694519
O       -2.6111245      0.97902173      -6.2952594
H       -2.4791617      0.05320890      -6.5449619
H       -3.5148310      1.06546187      -5.9651341
O       -0.6213204      -1.9294021      -4.3634843
H       0.28555265      -1.8334015      -4.6792116
H       -0.8859422      -1.0647183      -4.0151767
O       -3.9360096      -3.3956916      -6.4435477
H       -4.0416517      -4.0327816      -7.1453275
H       -3.2236554      -2.7926182      -6.7170829
O       -4.6870288      -2.2568619      -2.3982007
H       -3.9750888      -2.7750172      -2.8141098
H       -5.0054636      -2.7699153      -1.6605339
O       -5.6644778      -1.6493060      -4.9984655
H       -5.1746363      -2.2695968      -5.5520849
H       -5.4649438      -1.8932005      -4.0849270
O       1.85665786      -1.1545321      -5.4929990
H       2.77673197      -1.3192578      -5.3055992
H       1.67464459      -0.2348720      -5.2265563
O       -0.2866818      2.07442474      -7.2797842
H       -0.4099620      2.87221241      -7.7878036
H       -1.1680811      1.79568589      -6.9787139
O       -3.8838927      0.48079464      -2.5454051
H       -4.1558580      -0.4325383      -2.3880813
H       -4.3743267      0.76770419      -3.3248708
O       -5.1462855      0.99658757      -5.1326890
H       -5.9540333      1.48911774      -5.2507920
H       -5.3884234      0.05260043      -5.1412901
O       -1.4195444      0.65795386      -3.7353050
H       -2.1823711      0.63526821      -3.1404588
H       -1.7857099      0.84200269      -4.6108598
O       -2.7960526      -3.6116437      -3.7935121
H       -1.9600346      -3.1375014      -3.9006686
H       -3.1673042      -3.7072694      -4.6788015
O       1.06340456      1.36337638      -4.8521637
H       0.29474151      1.23744667      -4.2784357
H       0.71838832      1.74900913      -5.6673193