48
 Ord_Energy   -165.9027560
O       -3.6386396      15.4585009      -0.8066513
H       -4.2684564      14.9956036      -0.2333103
H       -4.0100245      15.4241800      -1.6957111
O       -5.0354723      14.9726467      -3.2014305
H       -5.6800265      14.4886694      -2.6516375
H       -5.5369434      15.5194387      -3.7996449
O       -3.2296543      15.3737755      4.38034058
H       -2.8645787      14.4807920      4.36708450
H       -2.5332572      15.9462194      4.03285408
O       -3.4150302      17.3269958      1.27959573
H       -3.4291904      16.8160572      0.45949820
H       -4.1788501      17.0280724      1.78827453
O       -1.5354784      11.8083487      -2.1213364
H       -2.2666072      12.0783653      -2.7060718
H       -0.8604446      11.4317961      -2.6792528
O       -5.3879609      14.0922203      0.90475440
H       -4.7569661      13.4296932      1.22004950
H       -5.5111150      14.7323313      1.61709654
O       -1.9092825      12.8757467      3.99779081
H       -1.2647284      13.3597250      3.44799781
H       -1.4078114      12.3289557      4.59600544
O       -5.6297807      10.8995676      -2.1582922
H       -6.0652084      10.0724993      -2.3454666
H       -4.9296393      10.7072792      -1.5091863
O       -5.4092764      16.0400467      2.91769719
H       -4.6781477      15.7700291      3.50243235
H       -6.0843105      16.4165974      3.47561359
O       -0.3461355      14.3503466      2.35149121
H       -0.6225010      14.1738129      1.44158626
H       -0.5605923      15.2763681      2.52332902
O       -6.5986194      13.4980478      -1.5551308
H       -6.3222541      13.6745815      -0.6452258
H       -6.3841629      12.5720263      -1.7269685
O       -3.5297250      10.5213976      -0.4832350
H       -2.7659046      10.8203211      -0.9919137
H       -3.5155649      11.0323372      0.33686238
O       -1.3149746      16.9488258      2.95465302
H       -0.8795464      17.7758942      3.14182711
H       -2.0151157      17.1411152      2.30554700
O       -3.3061156      12.3898935      1.60301185
H       -2.6762988      12.8527908      1.02967072
H       -2.9347307      12.4242144      2.49207163
O       -1.5567944      13.7561731      -0.1083938
H       -2.1877894      14.4187012      -0.4236890
H       -1.4336400      13.1160631      -0.8207360
O       -3.7151007      12.4746180      -3.5839800
H       -4.0801763      13.3676014      -3.5707240
H       -4.4114975      11.9021749      -3.2364935