75
 Ord_Energy   -277.1932980
O       13.7526588      6.71421051      -7.8839492
H       13.6147575      6.68934202      -6.9411139
H       12.8827314      6.57677889      -8.3009262
O       13.7208261      5.25924826      -15.813330
H       14.3748951      5.72045708      -16.353197
H       14.2267570      4.69995451      -15.212666
O       17.1074162      6.26753616      -14.759892
H       16.8277264      6.99675274      -14.188227
H       16.7504539      6.43877649      -15.639941
O       15.8299999      10.5892725      -14.339185
H       16.0323544      9.78214931      -13.835788
H       16.5546799      11.1925583      -14.197068
O       10.1248035      6.60239267      -12.621610
H       10.4279518      5.77755737      -12.223259
H       10.6084909      6.69690323      -13.453562
O       17.7421703      3.86245990      -10.178585
H       16.9203091      4.27373886      -9.8766498
H       18.3789597      4.58216095      -10.262537
O       11.2808609      4.39036942      -11.212470
H       11.0801573      3.45866299      -11.243354
H       12.2122393      4.48688459      -11.475191
O       16.9683323      7.49363041      -10.496068
H       17.8703213      7.15517378      -10.558129
H       16.4247532      6.74299717      -10.215297
O       13.0336103      10.8545866      -13.769092
H       13.9888124      10.8907051      -13.900313
H       12.8946390      10.5440121      -12.863962
O       17.5978355      2.65303421      -12.603531
H       17.6202755      3.01857758      -11.700634
H       17.8870335      1.74691713      -12.540090
O       14.7780838      9.21036720      -16.602474
H       15.1963034      9.74271202      -15.914975
H       13.8268604      9.31314754      -16.476379
O       12.0412025      9.54275227      -15.910155
H       12.3243961      10.0416565      -15.121565
H       11.3964672      10.0817661      -16.360384
O       11.8036442      6.96054506      -14.827530
H       11.8316898      7.79478073      -15.312552
H       12.4032488      6.32927036      -15.254560
O       16.1753922      8.21845818      -13.033986
H       16.5326862      8.02726173      -12.156690
H       15.2435083      7.94958067      -13.015426
O       13.5761356      7.47684336      -12.771432
H       13.2424793      8.20883846      -12.236635
H       12.9654732      7.33673382      -13.506695
O       11.4035187      6.35172081      -9.1464490
H       10.9793205      7.11103392      -9.5645275
H       11.3058996      5.61842823      -9.7658901
O       19.1211796      5.00446320      -13.302758
H       18.5305214      5.47853231      -13.904550
H       18.7178783      4.13841534      -13.169239
O       13.8681097      4.92304754      -11.895113
H       14.4334927      4.53592253      -12.576537
H       13.7437277      5.85397673      -12.137902
O       15.7531052      6.76434135      -17.159303
H       15.4097490      7.66224146      -16.999889
H       15.9992676      6.72135258      -18.079156
O       15.5593252      4.09084082      -13.905678
H       16.1886463      3.46949577      -13.518543
H       16.0841427      4.85323429      -14.190432
O       19.4031200      6.12763929      -10.848598
H       20.3248444      6.27476788      -10.654978
H       19.3598099      5.77517748      -11.755928
O       10.2483397      8.45882225      -10.664997
H       10.1569414      7.83970356      -11.412871
H       9.39347172      8.85973835      -10.533112
O       15.4236259      5.31481504      -9.6411371
H       14.8749571      5.71121025      -8.9533395
H       14.8473663      5.12209558      -10.394507
O       14.6678038      8.91950607      -9.4670734
H       14.3619919      8.24001503      -8.8532753
H       15.5305119      8.62095737      -9.7771949
O       12.7262888      9.63678551      -11.272018
H       11.8667612      9.32371044      -10.963509
H       13.3849220      9.47941494      -10.577883