81
 Ord_Energy   -300.6537082
O       -2.8841788      10.8992229      -4.9659662
H       -3.5752465      10.2138945      -4.9060006
H       -2.9879662      11.3203987      -5.8146701
O       -2.7632612      12.1589453      -2.3992798
H       -2.8019986      11.8296410      -3.3047647
H       -3.4537020      11.6843803      -1.9167482
O       -3.6336174      6.34505932      -4.9719860
H       -3.7857407      5.40410757      -5.1275832
H       -2.6742711      6.47820426      -4.9640390
O       -0.8771468      9.30771008      -3.8524122
H       -1.4969626      9.87526832      -4.3273091
H       -0.8528534      8.44853450      -4.2954565
O       1.51321951      7.60558701      -0.7799937
H       1.37668281      8.48212562      -1.1866032
H       2.43424592      7.55016042      -0.5411145
O       0.43047447      4.97877141      -6.5289797
H       -0.2275196      4.25974307      -6.5342331
H       0.80930164      5.01358369      -7.4027533
O       -0.5710575      12.1197418      -0.7924203
H       -1.3372314      12.1573826      -1.3919468
H       -0.2459692      13.0130374      -0.7123812
O       -2.5751520      2.75149584      -2.8825639
H       -2.3654774      3.30991890      -2.1239370
H       -1.7510869      2.33075677      -3.1586463
O       -0.8791066      6.70174528      -4.7648428
H       -0.5687861      6.36219346      -3.9119928
H       -0.4105076      6.20906969      -5.4497713
O       -2.0238167      4.71829141      -0.9301320
H       -2.0842967      4.96148127      0.00022949
H       -2.7015290      5.24401187      -1.3868071
O       -4.4328136      7.46944500      1.43556665
H       -4.4081900      8.41862091      1.59472857
H       -5.0815544      7.32129025      0.73195315
O       -2.2932820      5.86950670      1.63762936
H       -3.1018982      6.41375694      1.57910856
H       -2.3069272      5.45119869      2.49389146
O       -6.0659936      7.03958312      -0.7641721
H       -6.3871923      7.75707910      -1.3208624
H       -5.3418830      6.64588345      -1.2720648
O       -3.8780828      3.55965932      -5.1081184
H       -3.4695272      3.28114822      -4.2676378
H       -4.6813498      3.05439120      -5.2024665
O       -6.4855442      9.29228831      -2.5260023
H       -5.8212636      9.75500984      -1.9859713
H       -7.2459582      9.86644243      -2.5756569
O       -4.4788146      10.4031158      -1.0398298
H       -4.5304921      10.4611262      -0.0780643
H       -3.7639650      9.77626983      -1.2365377
O       -0.2034074      1.68660163      -4.0209620
H       0.43003304      2.42501535      -3.9761786
H       0.29506742      0.88614056      -3.8826688
O       -1.5949570      10.6317312      1.41410779
H       -1.2357025      11.1843868      0.70971793
H       -1.2514315      9.74108998      1.25691117
O       -4.2529971      10.3296091      1.74343169
H       -3.2914879      10.4804416      1.68495118
H       -4.5629707      10.8133317      2.50377518
O       0.94757070      9.97713204      -1.8956070
H       0.51733630      10.7230823      -1.4613750
H       0.41442996      9.79054682      -2.6820806
O       -2.4184723      8.66168106      -1.5839657
H       -1.8556641      8.49103804      -0.8178965
H       -1.8561280      8.91942474      -2.3250845
O       -4.7129560      8.94323179      -4.7469843
H       -4.4428871      8.02628117      -4.8853465
H       -5.3686585      8.95042495      -4.0399380
O       0.12409409      5.73570184      -2.3660144
H       0.62827708      6.35422368      -1.8242535
H       -0.5782578      5.35841926      -1.8181855
O       -1.3582048      2.95674000      -6.3099846
H       -0.9962168      2.39456028      -5.6126886
H       -2.2591689      3.16661869      -6.0353925
O       -0.8399905      8.05958017      0.66100078
H       0.01817203      7.82243602      0.28874137
H       -1.2398933      7.26818477      1.04324268
O       1.38742714      3.88151906      -4.0385604
H       1.24500157      4.28636931      -4.9026199
H       1.03617293      4.50839272      -3.3905266
O       -3.7797269      6.35532420      -2.1983422
H       -3.3387449      7.18916170      -1.9750114
H       -3.8133740      6.30540325      -3.1608528