39
 Ord_Energy   -130.2582550
O       0.63651645      10.5500555      -6.8961372
H       1.40337992      10.8359356      -6.3807954
H       0.55875093      9.59953117      -6.7418975
O       1.88926971      7.50718164      -9.2247953
H       1.50701630      8.33413219      -9.5536584
H       2.84246278      7.65545416      -9.2049655
O       4.61450243      8.36951160      -8.7870693
H       5.43545151      7.88470030      -8.7895345
H       4.33989048      8.44944572      -7.8560051
O       2.21969247      14.6092396      -8.4077711
H       2.05143285      15.5233335      -8.1966323
H       1.40017211      14.1192818      -8.2158861
O       2.49447298      13.2081957      -10.884279
H       2.50983334      13.7992115      -10.120028
H       3.07215238      12.4678297      -10.658390
O       -0.0196326      13.0912495      -8.0647296
H       -0.2269447      12.8596029      -8.9792509
H       0.06127271      12.2585020      -7.5834603
O       3.68940568      10.8672323      -9.7488250
H       4.16659737      10.0587292      -9.5267095
H       2.75370216      10.6175318      -9.7438974
O       -0.0991094      12.3823004      -10.849500
H       -0.5881729      12.6161776      -11.633110
H       0.80897510      12.7146235      -10.971182
O       3.98561668      12.5863686      -7.5406632
H       3.47328591      13.3656683      -7.7896537
H       3.97398520      11.9995995      -8.3093004
O       3.62341571      8.58339024      -6.2550807
H       3.51240897      9.47676182      -5.9058823
H       2.73704481      8.20177650      -6.2701306
O       2.97600007      11.2254124      -5.4703021
H       3.40026665      11.7494726      -6.1744904
H       3.13531137      11.6809263      -4.6486887
O       0.99574518      10.1087275      -9.6425428
H       0.51171482      10.7756777      -10.143376
H       0.85754490      10.3018885      -8.7039232
O       0.91267115      7.73093033      -6.6936674
H       1.20794868      7.54964781      -7.6042413
H       0.40719458      6.97339010      -6.4123601