39
 Ord_Energy   -130.3485260
O       -0.1380711      12.2440224      -8.6108226
H       0.72345436      12.6814079      -8.4837923
H       -0.5095810      12.5946636      -9.4156427
O       1.09906948      9.83412647      -7.8194608
H       0.56170577      10.5307703      -8.2155990
H       2.00417733      10.1786222      -7.7854557
O       2.33264518      13.2670889      -8.1161642
H       2.93366528      12.5123405      -8.0612821
H       2.43321705      13.7439146      -7.2831244
O       2.18354273      7.41640854      -6.8235149
H       1.67442870      8.09879971      -7.2812876
H       1.89595962      7.44171667      -5.9021806
O       3.67982459      10.8729429      -7.4377832
H       4.19685650      10.0624409      -7.3583240
H       3.50992107      11.1724424      -6.5314455
O       4.75151253      8.33686256      -6.8217921
H       5.37599611      7.70984173      -7.1758461
H       3.87292910      7.91880608      -6.8713226
O       0.54389906      10.2887764      -5.1145272
H       0.75179637      9.47746944      -4.6358757
H       0.67077607      10.0871325      -6.0536785
O       0.03040575      14.8152037      -4.8257827
H       -0.3994768      14.0195951      -5.1858716
H       -0.6347141      15.2686462      -4.3162460
O       2.61538839      14.4000015      -5.4908828
H       3.14674854      15.1608772      -5.2718458
H       1.70156109      14.6079960      -5.2268552
O       4.05424118      9.16383076      -4.1512470
H       3.82638717      10.0973988      -4.2605452
H       4.45505905      8.88717079      -4.9846749
O       -0.9764229      12.5290136      -5.8858594
H       -0.8174281      12.4542351      -6.8348498
H       -0.5809881      11.7420673      -5.4881844
O       1.63313568      7.91714382      -4.0441694
H       1.52831495      7.35902548      -3.2787122
H       2.52037907      8.31531143      -3.9848082
O       2.97399592      11.6741915      -4.8571915
H       2.88754940      12.6297903      -4.9572610
H       2.08041644      11.3011703      -4.8671298