30
 Ord_Energy   -92.8239136
O       6.31515169      0.05213365      5.48299217
H       6.86187792      0.85625136      5.53721571
H       6.85473776      -0.6211515      5.07794666
O       4.63732529      4.38518143      7.36278200
H       4.92629528      4.44448328      6.44237089
H       4.90087414      5.19735432      7.81932688
O       5.45268106      4.06359053      4.69197321
H       5.33933353      4.52403116      3.86515450
H       4.93505573      3.23991942      4.63173532
O       5.37103128      0.46304375      8.16950893
H       5.67496920      0.16259398      7.30354548
H       4.52091837      0.89243621      8.01054001
O       6.75013924      2.84167695      8.43783474
H       6.38639212      1.94832206      8.51291656
H       6.02659178      3.38841605      8.10026073
O       4.10277319      1.70408177      4.81929827
H       4.78006220      1.02645457      4.94691133
H       3.61746669      1.75021982      5.65303755
O       7.59327173      2.45269442      5.75531816
H       7.02096319      3.09394813      5.31655836
H       7.48573637      2.61457610      6.70247698
O       5.66415691      6.48956299      8.78721809
H       6.44712687      6.06908607      9.18016911
H       5.43327141      7.21026850      9.36733341
O       7.78414345      5.01962519      9.77625847
H       7.52393246      4.16619158      9.39184284
H       8.73333645      4.98925447      9.86388779
O       3.09869862      2.10635948      7.46228409
H       2.24918008      2.23395967      7.87651777
H       3.55961847      2.96187449      7.50055838