18
 Ord_Energy   -46.5096512
O       24.6339531      4.45806742      27.7533035
H       25.4193115      4.11067486      27.3127975
H       24.0012341      3.72395492      27.7653198
O       26.3893108      6.08044815      24.7378979
H       25.4490433      6.16351891      24.9645176
H       26.7250576      6.97059441      24.6702404
O       22.8794060      2.35792565      27.2086716
H       23.1781330      2.49297833      26.2943668
H       22.5647755      1.45895851      27.2517624
O       23.7528801      5.92565346      25.6182766
H       22.9349022      6.38421583      25.7880630
H       24.0045300      5.48450422      26.4500103
O       26.6354370      3.57075620      25.8297329
H       26.6889572      4.44669056      25.4105606
H       27.5057583      3.18611312      25.7699528
O       23.9846840      3.10819840      24.7609634
H       23.7500973      4.04238701      24.8086052
H       24.9164047      3.08141541      25.0158005