27
 Ord_Energy   -82.7648315
O       31.7603016      -20.027780      12.2765388
H       32.5176315      -19.477941      12.5281830
H       32.0486145      -20.550851      11.5327005
O       32.5309677      -14.548892      14.6477652
H       31.5681915      -14.675505      14.7300615
H       32.7242966      -13.679376      14.9862471
O       33.7990456      -18.290517      13.0977421
H       34.7465744      -18.385608      13.1447811
H       33.5061951      -17.988349      13.9769382
O       32.9102249      -17.265335      15.4392748
H       32.0088692      -17.512109      15.6844673
H       32.8898048      -16.311668      15.2880068
O       30.1549625      -17.794422      15.8963642
H       29.6648293      -18.283750      16.5508080
H       29.9297543      -18.179805      15.0293293
O       32.4670525      -15.917448      12.1379242
H       32.9500427      -16.732263      12.3197289
H       32.5991325      -15.358494      12.9151831
O       29.6141949      -18.661367      13.4027405
H       30.2917614      -19.218719      12.9947815
H       29.5605831      -17.863870      12.8615637
O       29.7468777      -16.151641      12.0604048
H       30.7160416      -16.081762      11.9988909
H       29.3941612      -15.805995      11.2451124
O       29.8956985      -15.195536      14.7523575
H       29.8808193      -16.021251      15.2542734
H       29.6868877      -15.440390      13.8413887