51
 Ord_Energy   -177.9953610
O       -3.5935628      -12.043251      -8.5374803
H       -2.6284291      -12.056636      -8.5582523
H       -3.8394630      -11.148436      -8.7985429
O       -1.2350082      -8.8909044      -8.8694286
H       -0.9350038      -9.8084325      -8.8206110
H       -2.1894042      -8.9337177      -9.0074148
O       -3.0123791      -10.482803      -2.6079635
H       -2.7150332      -9.5698938      -2.7050163
H       -3.8009138      -10.582872      -3.1545922
O       -1.0625706      -12.346702      -2.4441101
H       -1.7669229      -11.673194      -2.4524147
H       -1.0583385      -12.728339      -1.5706137
O       -1.9240791      -7.8605895      -2.9383158
H       -2.2708602      -7.4424157      -3.7469308
H       -1.9228918      -7.1908149      -2.2596516
O       -4.4005932      -12.787030      -5.9611544
H       -3.5775859      -13.151015      -5.6102356
H       -4.2180109      -12.569239      -6.8865580
O       -4.1601643      -9.1269722      -6.1831855
H       -4.7543997      -9.5706262      -5.5673837
H       -3.3222339      -9.6153469      -6.1132688
O       0.70289838      -13.184845      -6.3078832
H       1.42106891      -13.808445      -6.3746175
H       0.93036658      -12.573941      -5.5838823
O       -2.7299153      -6.8793406      -5.3263115
H       -1.9595338      -6.9058179      -5.9075980
H       -3.3407001      -7.5516238      -5.6592030
O       1.07631969      -11.524696      -4.1746606
H       0.45151195      -11.798638      -3.4913237
H       0.92354542      -10.579066      -4.3034844
O       -1.8545255      -10.536811      -5.8204984
H       -1.1640967      -10.069728      -5.3352904
H       -1.9350880      -11.425250      -5.4515008
O       0.10485109      -8.9296941      -4.5972795
H       -0.4701603      -8.5414781      -3.9247663
H       0.07601562      -8.3440837      -5.3661932
O       -1.8188222      -13.266771      -4.9855761
H       -1.0028365      -13.407502      -5.4824771
H       -1.5678162      -13.112294      -4.0653576
O       -0.3462281      -7.3007397      -6.8617458
H       0.20892848      -6.6283011      -7.2479410
H       -0.6481682      -7.8645920      -7.5959701
O       -0.7931770      -11.564033      -8.1523037
H       -0.1699382      -12.178923      -7.7519416
H       -1.2088593      -11.117717      -7.3961353
O       -5.3084220      -10.863401      -4.3110747
H       -5.0282206      -11.587723      -4.9023461
H       -6.1733593      -11.095907      -3.9852838
O       -4.0737004      -9.2128372      -8.9224538
H       -4.7999830      -8.7648410      -9.3483657
H       -4.2138981      -9.1276111      -7.9640522