78
 Ord_Energy   -288.4868384
O       0.81259088      -2.2103351      3.18301702
H       0.76221893      -2.4486352      4.10495756
H       -0.0940225      -1.9900926      2.90215087
O       2.49646034      0.66720321      -2.0695840
H       3.36834801      0.75087931      -1.6594028
H       2.25467485      1.55778277      -2.3444055
O       -3.2805988      -0.2293589      -1.9220787
H       -4.1370148      0.17590576      -1.8178096
H       -2.7731227      -0.0351708      -1.1139907
O       -2.0862971      -3.9964552      0.54173884
H       -2.7091760      -4.7159091      0.60278104
H       -2.1709373      -3.6329702      -0.3573762
O       -1.6473062      0.24129868      0.21014971
H       -0.8271487      -0.1749407      -0.1030384
H       -1.4234306      1.15549091      0.42439621
O       -2.3328437      -2.9189181      -1.9342610
H       -1.5921662      -2.8646522      -2.5517902
H       -2.7772775      -2.0639685      -1.9778888
O       -0.0135145      -2.4570876      -3.4771596
H       0.50036407      -2.4226587      -4.2915444
H       0.56636463      -2.8298056      -2.7956695
O       4.35265109      -2.9829725      -1.6264669
H       4.48173743      -2.3247784      -0.9181037
H       5.03099928      -3.6432522      -1.5162558
O       3.00872946      2.55908086      -5.2447947
H       3.07176619      3.02230997      -6.0760159
H       2.28422851      1.91455622      -5.3398075
O       -1.6852640      -1.7376502      2.21852390
H       -1.7631519      -0.9874385      1.61536533
H       -1.9242186      -2.5161106      1.69870313
O       -0.6972335      2.82743965      0.55128858
H       0.22606767      2.68320351      0.82847314
H       -1.0078940      3.59587274      1.02195908
O       2.30595349      -0.3635473      1.66642554
H       1.92262802      -0.9446328      2.33409746
H       1.75655365      -0.4937955      0.87839284
O       -0.2732598      2.74315249      -2.2808688
H       -0.4911104      2.75935789      -1.3414674
H       -0.5103045      1.86945871      -2.6170699
O       4.63596392      -1.0794973      0.23454994
H       4.94933628      -0.2576646      -0.1680000
H       3.91055384      -0.8439489      0.82661689
O       1.86802436      2.39269138      1.24712980
H       2.59320736      2.77117149      0.73812556
H       2.12178522      1.49344444      1.49310738
O       3.82025542      3.63777712      -0.4761033
H       3.27339099      3.65850760      -1.2819691
H       4.12483102      4.52881346      -0.3252248
O       5.10771392      1.24697212      -1.2046480
H       5.28337925      1.28744866      -2.1571396
H       4.83260154      2.12554280      -0.9136768
O       0.75065581      -0.7825001      -0.5798295
H       0.96756051      -1.6933109      -0.8136068
H       1.28709662      -0.2112056      -1.1495500
O       1.56695445      -3.3216901      -1.3969989
H       2.52896917      -3.2953445      -1.4551036
H       1.32698651      -3.7306542      -0.5509400
O       1.78500547      -1.9924389      -5.6247754
H       2.16332365      -2.5144334      -6.3271240
H       2.50448475      -1.7916342      -4.9999716
O       2.27843125      3.46189515      -2.7029409
H       1.31804336      3.34410895      -2.6179527
H       2.52909929      3.28987216      -3.6188130
O       1.00422439      0.74628155      -5.4289787
H       0.26342901      0.69492253      -4.8117906
H       1.22689663      -0.1666537      -5.6464617
O       3.60473881      -1.2800996      -3.7301723
H       3.93975493      -1.9102035      -3.0795117
H       3.11594565      -0.6046324      -3.2355664
O       -0.9205420      0.22587359      -3.4111983
H       -1.8197032      0.14889159      -3.0703293
H       -0.5416767      -0.6614179      -3.3410027
O       5.18052862      1.10872045      -3.9822678
H       4.53254881      1.66031605      -4.4374246
H       4.83165101      0.21061626      -4.0462494
O       0.70992245      -4.1621061      1.03470306
H       -0.2472080      -4.1923592      0.90223916
H       0.85735999      -3.5701023      1.78116501