21
 Ord_Energy   -56.8169594
O       33.4488106      1.16343784      -5.1335530
H       33.9977570      0.71979874      -4.4773149
H       32.5440750      1.10586929      -4.7910552
O       33.6165962      1.86045158      -1.1090769
H       33.1482964      2.57299137      -1.5658872
H       32.9589729      1.17054904      -0.9653529
O       32.2051315      -0.6221532      -1.7724500
H       33.0773926      -0.6089078      -2.1964182
H       32.0389023      -1.5290660      -1.5267198
O       32.1259651      3.71077347      -2.6360843
H       32.6663437      3.86221075      -3.4315326
H       31.6818638      4.53256226      -2.4454214
O       31.0513496      1.21180952      -3.6761810
H       31.2596474      2.07020664      -3.2867429
H       31.2719383      0.55724067      -3.0020291
O       33.6338501      3.87718964      -4.8963708
H       33.6383629      2.92156267      -5.0807747
H       33.8462448      4.30674124      -5.7199740
O       34.7564697      0.04661834      -2.8096332
H       35.6749077      -0.1531845      -2.6497142
H       34.5278015      0.79485810      -2.2293596