45
 Ord_Energy   -153.0137940
O       -0.0827450      5.21275043      5.26194048
H       -0.8296831      5.18622732      4.64463186
H       0.60185605      5.74288416      4.83662176
O       -4.2456150      5.23633575      5.47691154
H       -4.8508973      5.95548868      5.63752413
H       -4.7790331      4.42298746      5.43455124
O       2.18963242      1.82970393      3.28866100
H       2.75416636      1.10291672      3.53986382
H       1.60293388      2.00122333      4.04405117
O       0.14689146      1.91401970      1.22757053
H       0.32878092      2.74094224      0.76269966
H       0.89716584      1.77600026      1.81867862
O       1.74161792      6.56116486      3.63701057
H       2.15819454      5.81030703      3.17613125
H       2.40146160      7.24580574      3.70158577
O       0.39220867      2.48275065      5.26645660
H       -0.1331750      2.14267302      6.00143957
H       0.33574295      3.44953585      5.30510759
O       -0.4440039      6.25507832      1.75648296
H       -1.1688383      5.89270401      2.28440118
H       0.23782352      6.52263546      2.38422537
O       2.69441962      4.43385458      2.25752807
H       2.63311005      3.54492474      2.62787652
H       2.16596270      4.42020988      1.44860137
O       -3.3998804      1.28024960      5.20046234
H       -2.8828773      1.52319515      4.41996908
H       -2.7957563      1.35460651      5.94844294
O       0.79808229      4.46231794      0.13695995
H       0.80419564      4.76680470      -0.7663200
H       0.29012766      5.11581802      0.65009928
O       -1.6316964      2.29543924      3.27946711
H       -1.1596916      2.10059476      2.45746350
H       -0.9554783      2.31564760      3.96965718
O       -2.2385931      4.99306393      3.50346732
H       -2.9937083      5.11613989      4.09093428
H       -2.1413147      4.04207993      3.34637260
O       -5.5800800      2.88937950      5.35186291
H       -6.3643584      2.40909934      5.10277748
H       -4.8461422      2.25167727      5.30529165
O       -1.4836956      1.86736071      7.26613665
H       -1.4681137      1.54287517      8.16233349
H       -1.7278972      2.80999279      7.31184101
O       -2.0410850      4.52004051      7.16950035
H       -1.2999700      4.89703369      6.67633867
H       -2.8364610      4.78377962      6.69078970