42
 Ord_Energy   -141.8575900
O       -0.5904418      3.44608235      -6.9241137
H       -0.2585421      3.28330112      -6.0282101
H       -1.1914495      4.19712830      -6.8569040
O       0.32290339      2.81535935      -4.3543601
H       -0.1536607      1.97423184      -4.2908787
H       1.24592900      2.59425163      -4.5269007
O       -1.0188000      0.38763642      -4.5523896
H       -1.2540434      0.50417876      -5.4826626
H       -1.8520770      0.44063094      -4.0631756
O       -3.9382534      3.56142640      -2.8644208
H       -4.2646002      3.70944881      -3.7707035
H       -4.6053648      3.89956450      -2.2726538
O       -1.7012491      0.93669033      -7.2562980
H       -1.0145732      0.41292435      -7.6867542
H       -1.3729625      1.84841335      -7.2210288
O       1.75962257      2.19255638      -7.8652434
H       2.24893260      2.15347052      -7.0335507
H       1.00464749      2.77298760      -7.6988296
O       -4.3067054      1.18346286      -6.4035778
H       -4.9077143      0.64343142      -6.9112253
H       -3.4225461      1.04536808      -6.7809329
O       -3.5502269      0.83069956      -3.6122107
H       -3.9383313      0.88183212      -4.4943203
H       -3.6680684      1.70734489      -3.2252857
O       1.45123804      -0.5732280      -5.4679489
H       0.61916852      -0.4105278      -5.0013694
H       1.21525145      -0.6588079      -6.3996043
O       2.80583525      1.77584422      -5.2259955
H       3.67808795      1.67396998      -4.8553295
H       2.40919471      0.88643098      -5.2644553
O       -1.5330861      4.83677721      -3.7139039
H       -0.8233594      4.18400574      -3.7804846
H       -2.2741580      4.39584875      -3.2791690
O       -4.6048898      3.86617208      -5.4863576
H       -4.5407156      2.99643540      -5.9010543
H       -3.9164462      4.41734838      -5.8788409
O       -2.3619990      5.49411440      -6.2093625
H       -2.3743722      6.43596935      -6.3562445
H       -2.0501027      5.35419416      -5.2954816
O       0.64963323      -0.2656742      -8.2283182
H       0.95319438      -0.7026035      -9.0193004
H       1.09907317      0.59850514      -8.1927204