48
 Ord_Energy   -165.7130580
O       -3.5926227      15.3795738      -0.9867817
H       -3.7897133      15.0307741      -1.8645638
H       -2.7786777      14.9592876      -0.6740282
O       -4.4054846      14.0832701      -3.3483254
H       -4.8896265      14.4183960      -4.0980877
H       -5.0244231      13.5317764      -2.8343825
O       -4.2545609      15.9934120      4.03344011
H       -3.6425492      16.6514263      3.67876887
H       -3.7267231      15.1997032      4.18263865
O       -4.4002161      17.4623241      0.68425095
H       -5.1569881      17.0547466      1.12196279
H       -4.1125159      16.8365765      0.00437160
O       -0.5334617      11.9244766      -1.4568444
H       0.28332585      11.6603594      -1.8708897
H       -1.2138105      11.9339247      -2.1543955
O       -5.3454365      13.9031458      0.63490915
H       -4.7635273      14.4312534      0.06809273
H       -5.8055477      14.5293379      1.20728576
O       -2.4346385      13.8018007      4.15589476
H       -1.9504967      13.4666767      4.90565777
H       -1.8157000      14.3532944      3.64195156
O       -4.3374624      10.1432333      -1.7906637
H       -3.6945571      10.1768007      -1.0599088
H       -4.5732193      9.22699928      -1.9074101
O       -6.3066616      15.9605942      2.26441288
H       -7.1234493      16.2247124      2.67845774
H       -5.6263127      15.9511471      2.96196461
O       -0.9282162      15.3822126      2.55623126
H       -1.3686218      16.2410927      2.51462960
H       -0.9720490      15.0034962      1.66825223
O       -5.9119072      12.5028591      -1.7486619
H       -5.4715018      11.6439791      -1.7070598
H       -5.8680739      12.8815756      -0.8606830
O       -2.4399063      10.4227467      0.12331840
H       -2.7276065      11.0484953      0.80319756
H       -1.6831346      10.8303251      -0.3143937
O       -2.5026609      17.7418385      2.59823418
H       -3.1455659      17.7082710      1.86747885
H       -2.2669041      18.6580715      2.71498036
O       -3.2474997      12.5054970      1.79435062
H       -3.0504095      12.8542967      2.67213297
H       -4.0614447      12.9257841      1.48159707
O       -1.4946860      13.9819250      0.17265975
H       -1.0345749      13.3557329      -0.3997170
H       -2.0765950      13.4538183      0.73947644
O       -2.5855629      11.8916588      -3.2258706
H       -3.1975748      11.2336445      -2.8711988
H       -3.1134007      12.6853676      -3.3750696