39
 Ord_Energy   -130.0820310
O       4.87247419      12.2726173      -10.257417
H       5.51449156      12.3991623      -9.5475235
H       4.00198936      12.3841181      -9.8530912
O       8.54145527      11.5572023      -5.9810023
H       9.46243477      11.7806196      -5.8769745
H       8.50331020      10.6032391      -6.1765723
O       4.87903929      9.65283203      -11.010230
H       4.99231529      9.52662086      -11.948065
H       4.89515543      10.6136599      -10.849989
O       4.44445372      12.8079004      -4.0264964
H       4.35690784      13.3082790      -3.2206513
H       5.21489811      12.2261620      -3.9034500
O       6.28493977      9.28921604      -8.6062545
H       5.53889847      9.21421623      -7.9940819
H       5.91164875      9.27639294      -9.4958162
O       5.85546112      8.46550655      -4.8229970
H       5.52349377      7.72266912      -4.3250627
H       5.17439985      8.68635082      -5.4803867
O       6.53389740      12.0062809      -7.9299655
H       7.25758219      12.0565853      -7.2942757
H       6.50696564      11.0821838      -8.2197151
O       4.12060881      9.31680679      -6.7829690
H       3.52440310      9.16119385      -7.5300684
H       4.07098103      10.2658663      -6.6002230
O       2.42003584      12.2363434      -8.7914238
H       1.68525648      12.8339653      -8.6815824
H       2.92294168      12.2525578      -7.9579992
O       6.57148600      11.1060333      -3.9446315
H       7.27843904      11.3382368      -4.5589280
H       6.33905125      10.1897631      -4.1381325
O       4.06862974      12.1138554      -6.6284065
H       4.95137453      12.1815386      -7.0192389
H       4.11969566      12.4303017      -5.7153377
O       2.69580173      9.39131546      -9.1320219
H       3.33561349      9.33968925      -9.8525323
H       2.44611263      10.3231792      -9.0795660
O       8.11771297      8.92509747      -6.5222253
H       7.64465046      8.92416954      -7.3660955
H       7.46909904      8.62908268      -5.8710274