30
 Ord_Energy   -93.2916870
O       7.03772020      4.71628809      8.58881569
H       6.52597523      5.25203705      9.18841743
H       6.47288513      4.54495811      7.81412697
O       5.56824684      4.16291475      6.37064075
H       5.98425579      4.48611975      5.56150436
H       5.44416904      3.21485257      6.23644114
O       9.44738865      5.19926357      7.15724659
H       8.66417027      5.13047028      7.71783209
H       9.72699833      4.29085398      6.98686361
O       7.97106123      2.26473260      4.71808767
H       7.70309925      3.12826300      4.37935734
H       7.16301250      1.85699582      5.05429411
O       6.98920250      4.84824038      3.98623824
H       6.64647293      5.14468002      3.14740753
H       7.67467070      5.48724270      4.24892855
O       5.50470495      1.35399687      5.84139061
H       5.73072004      0.91152936      6.67825127
H       4.81557226      0.83506674      5.43545341
O       8.13033295      2.09914947      8.80314922
H       7.75335073      2.98656344      8.85606766
H       8.81617928      2.14694715      8.12510014
O       8.92044544      6.53522730      4.85653448
H       9.47662354      7.30482817      4.78122711
H       9.16148853      6.10812426      5.69759750
O       9.91094780      2.44648790      6.61273241
H       9.24758530      2.35299301      5.90580702
H       10.6841860      1.96712232      6.32857800
O       6.24749947      0.24358814      8.19687080
H       6.19599199      -0.4171955      8.88097858
H       6.93665457      0.87126112      8.47793579