78
 Ord_Energy   -288.6389207
O       3.78896956      -2.5561584      3.06437255
H       4.54543004      -2.6619719      3.63560126
H       4.13012815      -2.3182769      2.18580709
O       2.58335534      0.34286367      -2.3064924
H       3.50783758      0.26051561      -2.5675317
H       2.41794438      1.26769926      -2.0787674
O       -0.3196382      2.26622736      -0.1907716
H       -1.0978788      2.78370315      -0.0019031
H       -0.6228359      1.46644883      -0.6579600
O       5.30567649      -2.3757253      -3.7601696
H       4.75121415      -2.5302772      -4.5344194
H       4.92564620      -2.9103966      -3.0497876
O       1.95818080      -4.4968949      2.04397857
H       2.61446793      -3.9205708      2.45329169
H       1.10251032      -4.0907980      2.22747108
O       -0.3886094      -2.9725585      2.60297044
H       -1.0565317      -3.1433458      3.26141729
H       0.17187436      -2.2546746      2.94930527
O       2.46394613      -5.6406065      -0.3512282
H       2.62056922      -6.5713312      -0.2162979
H       2.28916889      -5.2551675      0.52627459
O       1.54192793      1.02250315      1.59591324
H       1.69545062      0.24441822      1.03657318
H       0.85119780      1.52493473      1.14755161
O       -1.0686865      0.01735138      -1.4892571
H       -0.6626470      -0.2018089      -2.3364166
H       -1.0357237      -0.7997826      -0.9721684
O       0.20597639      -4.4862704      -1.6845030
H       0.62496214      -4.1117624      -2.4708198
H       0.90040205      -4.9858790      -1.2379801
O       0.73356181      1.26350458      -5.6154177
H       -0.0726754      1.41942460      -6.1004676
H       0.54768927      0.54577916      -4.9857907
O       1.34615545      -1.0761747      3.46754677
H       2.21920736      -1.4837943      3.41276316
H       1.39592041      -0.2478395      2.97238210
O       3.75780869      2.39797473      0.44176252
H       4.45664354      1.75859336      0.26539741
H       3.10188342      1.94774623      0.99110015
O       4.45757779      -1.8563546      0.50578892
H       4.99552230      -1.0857895      0.28704098
H       3.53075659      -1.6146207      0.33128607
O       2.02951186      2.96675460      -1.6037387
H       1.17546677      2.84715279      -1.1694214
H       2.70407847      2.92521597      -0.9072510
O       3.88466962      -3.5950299      -1.6595697
H       3.47187542      -4.3726727      -1.2621302
H       4.16583805      -3.0371745      -0.9230910
O       5.81324755      0.47865799      -0.2807918
H       5.68877438      0.42116099      -1.2441132
H       6.71872619      0.74382396      -0.1381035
O       4.88268347      1.96224088      -5.0723155
H       4.07899007      2.44334101      -4.8018562
H       5.43314033      2.58548654      -5.5385467
O       5.29628851      0.21190996      -2.9395564
H       5.37871987      -0.6958196      -3.2731357
H       5.27387629      0.81918828      -3.6892348
O       1.81161579      -3.1671619      -3.5890076
H       2.48700145      -3.2121823      -2.8980969
H       2.28990698      -3.0911186      -4.4244913
O       1.94948608      -1.1170013      -0.0875648
H       1.10894310      -1.5863344      -0.1524124
H       2.10687007      -0.6389066      -0.9146471
O       -0.5338722      -2.3524643      -0.1343764
H       -0.6005745      -2.6098600      0.79277628
H       -0.3737413      -3.1488588      -0.6634083
O       2.54832025      3.12052917      -4.3612373
H       1.84654236      2.58970121      -4.7574957
H       2.33483580      3.21383948      -3.4229374
O       3.39498815      -2.6648757      -5.8636369
H       3.31497963      -1.7128225      -6.0525027
H       3.50668843      -3.1030086      -6.7029916
O       0.52811806      -0.6883130      -3.7296923
H       0.77656911      -1.6200762      -3.7566066
H       1.26601496      -0.2597510      -3.2646508
O       3.20027991      -0.0013386      -6.3104553
H       2.34587760      0.43067442      -6.1907337
H       3.85665992      0.61858714      -5.9719174