36
 Ord_Energy   -116.9350890
O       5.83901691      -4.1420688      -24.079717
H       5.04478502      -3.5953307      -23.976348
H       6.58876276      -3.5484223      -23.949905
O       3.89307213      -7.0417313      -22.131931
H       4.60330391      -6.5350298      -21.715387
H       4.04607058      -6.9606442      -23.079536
O       5.78593063      -5.0597033      -21.379043
H       6.39204025      -4.4474453      -20.937526
H       5.85649395      -4.8510594      -22.319866
O       4.33131266      -6.2672443      -24.940387
H       4.96980333      -5.5690074      -24.716114
H       4.76884460      -6.8520126      -25.554403
O       3.49389768      -3.5119900      -20.931499
H       4.27588367      -4.0801267      -20.990325
H       2.73134804      -4.0843219      -21.101001
O       1.68580437      -5.3397026      -21.864124
H       2.35124803      -6.0451960      -21.853710
H       1.54118133      -5.1502752      -22.796661
O       4.87739038      -1.2750691      -20.152378
H       4.53582907      -0.8442889      -19.372999
H       4.29126740      -2.0298664      -20.333232
O       5.35437775      -0.6754266      -22.895484
H       5.19655180      -0.7034489      -21.942474
H       4.63192034      -1.1804976      -23.290924
O       7.62718630      -2.1013364      -23.339160
H       6.86509275      -1.5042961      -23.226589
H       8.33240414      -1.5811410      -23.714639
O       1.95014668      -4.7799201      -24.741664
H       1.34393620      -4.9479517      -25.459253
H       2.70967031      -5.3687095      -24.874324
O       3.50358415      -2.6948719      -23.621303
H       2.86035562      -3.2463123      -24.082016
H       3.43414235      -2.9235782      -22.682365
O       7.26380014      -2.8772532      -20.560236
H       6.56460238      -2.2625134      -20.305688
H       7.54079390      -2.6046714      -21.443775