30
 Ord_Energy   -92.8901749
O       9.19114399      0.82133251      7.82694006
H       8.68424034      1.63440526      7.98986435
H       9.62849808      0.60146922      8.64549828
O       8.59838009      4.16437244      5.61869526
H       8.28269482      3.89214635      6.49651861
H       8.82313633      5.08910227      5.68289709
O       4.00944710      3.20749903      8.83955193
H       4.38293552      2.70563340      8.09628773
H       3.07803965      3.29428077      8.65477753
O       6.25664473      4.29585457      10.0084105
H       5.40479231      3.96639824      9.67362404
H       6.12755585      4.46392822      10.9377537
O       7.74033689      0.40584117      3.87903094
H       8.54928112      0.79748249      4.25361919
H       8.00177670      -0.0698308      3.09533501
O       9.81699944      1.62389469      5.16039419
H       9.54921246      2.54999948      5.22306013
H       9.77278614      1.28022170      6.06220675
O       7.60773325      3.08210421      7.96414042
H       6.83393908      2.67108011      7.55070162
H       7.28029060      3.56449366      8.73579121
O       5.34740496      1.92206407      6.79653358
H       5.72596073      1.03118730      6.77576494
H       5.51171970      2.30922198      5.92406845
O       6.88055038      -0.3517797      6.51152039
H       7.68287659      -0.1404462      7.00339127
H       7.11157274      -0.2375223      5.58009958
O       6.32114840      2.84590840      4.39034510
H       6.71819353      2.02083063      4.08105946
H       7.06130075      3.40526271      4.65447569