18
 Ord_Energy   -45.9915009
O       21.6553078      2.90054965      26.7751560
H       21.7161541      2.72154403      25.8278065
H       22.2690964      3.62820888      26.9289036
O       23.6772842      0.98887384      26.3551846
H       22.9454994      1.43663502      26.8035393
H       23.4917469      1.15518832      25.4234562
O       23.8881016      4.81793690      26.9710064
H       23.9499397      5.45693779      27.6758327
H       24.5269489      4.11119604      27.1729794
O       22.5103035      2.25708175      24.0298920
H       22.0271034      2.17630720      23.2117748
H       22.9954395      3.09759784      23.9810009
O       23.8689919      4.64848661      24.1815376
H       23.8805962      4.80366468      25.1388969
H       24.6893845      5.00536203      23.8491936
O       25.5456276      2.70206451      27.3887577
H       26.2297401      2.24932265      27.8735809
H       24.9736252      2.00849080      27.0170040