42
 Ord_Energy   -142.8409420
O       -1.3458719      3.20448613      -0.6176199
H       -0.9618609      2.33138514      -0.7633921
H       -0.6041188      3.82381678      -0.6223622
O       2.11942530      2.62784958      -1.8713134
H       1.77117825      3.47843027      -1.5741875
H       1.49637210      1.96409070      -1.5511069
O       -0.0332993      0.76846284      -1.2865158
H       -0.3070081      0.60973871      -2.2051250
H       0.00888791      -0.0847421      -0.8617994
O       -0.7429984      5.75242758      -3.1809444
H       -0.4819785      5.37440634      -4.0316100
H       -1.6135908      5.38799429      -2.9808926
O       1.52154362      2.18749356      -4.5095562
H       0.78297293      1.59166706      -4.3255209
H       1.90984583      2.39518499      -3.6480660
O       -0.0925723      4.23901129      -5.4599399
H       0.56350636      3.61621904      -5.1119113
H       -0.1158639      4.10698271      -6.4151430
O       1.39115381      1.25506151      -7.1526765
H       0.79310059      0.51409769      -6.9966659
H       1.66043103      1.56310415      -6.2757558
O       -3.0943152      4.24809980      -2.4029693
H       -2.5322914      3.84280276      -1.7177153
H       -3.8910577      4.54110527      -1.9697598
O       -0.7620513      -0.5614837      -6.5071134
H       -1.0456033      -1.3687653      -6.9272913
H       -1.3613475      0.14296179      -6.8150334
O       -0.7525525      0.58403486      -3.9387714
H       -1.3773549      1.30474401      -4.1110186
H       -0.7429745      0.03111752      -4.7297949
O       -2.2680282      1.59468627      -7.1996283
H       -2.5030396      2.00072265      -6.3541259
H       -1.6724380      2.21842313      -7.6340847
O       -2.3185372      2.76459432      -4.6332178
H       -2.7339437      3.22912693      -3.8966651
H       -1.5831661      3.32237554      -4.9280018
O       -0.1404152      3.28669739      -8.1231145
H       0.47080845      2.57212186      -7.8669986
H       0.14637473      3.60393310      -8.9749956
O       0.79924005      5.01907635      -1.0658294
H       0.30944809      5.34828806      -1.8403515
H       1.13418865      5.78457499      -0.6068888