18
 Ord_Energy   -45.2845001
O       28.4409370      4.69531393      25.6235085
H       27.8447075      5.19176626      26.2117462
H       29.3198185      5.02840185      25.7829075
O       24.6203651      3.45620704      24.3773556
H       24.2240906      2.91263580      23.7016315
H       25.4174500      2.98773146      24.6841965
O       24.5809822      3.83997369      27.1904964
H       23.7601280      3.65119863      27.6393566
H       24.3925495      3.77943468      26.2413101
O       26.7695122      2.43960190      25.7206287
H       26.2882633      2.65115952      26.5276165
H       27.4680920      3.10719204      25.6559792
O       26.4216290      6.02951813      26.9205055
H       26.1779957      6.24692678      26.0086231
H       25.7775459      5.36816883      27.2018700
O       26.1754971      5.89135885      24.1091976
H       27.0422020      5.49939680      24.2668457
H       25.5670280      5.14343739      24.0623569