36
 Ord_Energy   -119.1445010
O       6.39128590      -4.3680205      -23.176340
H       7.03319311      -3.9526426      -22.587373
H       5.82612133      -3.6516149      -23.502349
O       3.10414672      -6.8853159      -22.803937
H       3.61066794      -6.4115829      -22.122571
H       2.86862183      -7.7311511      -22.431089
O       4.64090109      -5.2739181      -21.195541
H       5.27353382      -5.0621786      -21.897705
H       4.97294712      -4.8252329      -20.404899
O       4.86043787      -6.0200066      -24.902046
H       4.28979349      -6.4640917      -24.262050
H       5.56157160      -5.5989203      -24.387125
O       2.86830640      -3.1684246      -21.802824
H       3.43982863      -3.8947384      -21.516273
H       2.23684120      -3.5591783      -22.423893
O       1.58338392      -4.6109952      -23.744831
H       2.03531694      -4.3755664      -24.564607
H       1.95397413      -5.4621744      -23.478145
O       3.96428609      -1.3179096      -20.099109
H       3.44593835      -1.9056307      -20.674940
H       3.33728242      -0.7940006      -19.607065
O       6.02229786      -0.8688067      -22.031452
H       5.57551146      -1.1942781      -22.824146
H       5.34695148      -0.8500915      -21.340963
O       7.78860140      -2.7974658      -21.281101
H       8.67581558      -2.4705808      -21.159154
H       7.24236631      -2.0371518      -21.551551
O       3.37131476      -3.9813401      -25.927583
H       3.91791224      -4.7446389      -25.667835
H       3.28328156      -4.0143909      -26.876152
O       4.55536938      -2.3756563      -23.930322
H       3.93413591      -2.5698490      -23.213865
H       4.16646051      -2.7558796      -24.727571
O       5.72366524      -3.5154647      -19.389841
H       5.16419458      -2.7316808      -19.451046
H       6.51723957      -3.3078088      -19.899927