69
 Ord_Energy   -252.2383022
O       -4.7903473      2.29262205      0.89513838
H       -4.5059233      2.26752588      1.81785767
H       -4.3732523      3.07549344      0.51271929
O       -0.9166879      -3.2775325      0.07591205
H       -0.0455483      -3.3690901      0.48112775
H       -1.4636117      -2.8135323      0.72307495
O       1.40458538      3.97302971      -1.1604532
H       1.35981378      4.33728631      -0.2580818
H       1.94446075      4.56974704      -1.6717167
O       -1.0469786      0.53505708      -1.8665609
H       -1.7355681      0.46336359      -1.1877153
H       -0.8748116      -0.3629202      -2.1742464
O       -0.6203687      0.24128920      4.97146368
H       -1.5318813      -0.0635851      4.89870279
H       -0.1185984      -0.3160692      4.36428635
O       1.17524207      4.91924955      1.35405643
H       0.24169700      5.06236818      1.56406191
H       1.56104758      4.48020394      2.12109431
O       -1.1869490      2.10567365      1.77214477
H       -1.1871299      3.07033175      1.74070990
H       -0.2812339      1.81748369      1.92854515
O       -3.3404380      -0.5227775      4.30733231
H       -4.0769548      -0.7667876      4.86204318
H       -3.4864124      0.39963461      4.03595874
O       -0.4155688      -2.1646318      -2.3526375
H       -0.6384321      -2.7770033      -3.0484871
H       -0.6729784      -2.5874242      -1.5134353
O       -2.1906807      -1.5704906      1.93395402
H       -2.4608907      -0.8979649      1.29115249
H       -2.6525225      -1.3633814      2.75502058
O       0.45986081      -1.2538743      2.79129102
H       -0.4508540      -1.3532281      2.47822874
H       0.97941569      -1.9312013      2.34075544
O       -0.2738348      3.00674353      5.04894050
H       -0.3789739      2.04411867      5.07558877
H       0.56344399      3.17952356      4.60524779
O       -1.3451461      3.36612412      -1.7199974
H       -0.4324490      3.64242118      -1.5739001
H       -1.3060719      2.42454102      -1.9284900
O       2.07887733      -1.5333336      -1.0849913
H       1.33105924      -1.7716999      -1.6475748
H       2.04442411      -0.5718111      -0.9997074
O       -3.4270172      2.06908760      3.42551218
H       -2.6167190      1.97794316      2.89992006
H       -3.3098703      2.88627824      3.92409875
O       -3.3169796      4.49635143      -0.2367783
H       -2.6365196      4.07848128      -0.7956019
H       -3.7751736      5.12344705      -0.7907078
O       -2.7844551      0.52553800      0.23897595
H       -2.1434034      1.08629220      0.70634963
H       -3.6288403      0.98880792      0.31591931
O       1.43904959      1.19660221      -0.7758704
H       1.56259578      2.13552338      -0.9630201
H       0.56738750      0.96301376      -1.1277543
O       -2.4651282      4.46009848      4.53624553
H       -1.6589143      3.96075072      4.77206018
H       -2.6514390      5.04478411      5.26489416
O       1.45196227      1.17513855      1.98548229
H       1.17985790      0.29716187      2.28676173
H       1.51894611      1.15340504      1.02065529
O       1.75850946      -3.0829485      1.12051459
H       2.45895115      -3.7259190      1.18669208
H       1.95929611      -2.5247213      0.34756006
O       2.12819584      3.31613956      3.50870630
H       1.97183776      2.50946462      2.98620048
H       3.00251385      3.23679900      3.88185197
O       -1.5458735      4.89226585      1.89615791
H       -2.2449038      4.87408597      1.22888955
H       -1.9501862      4.86853584      2.77279696