57
 Ord_Energy   -202.9078060
O       -1.0437068      7.88769245      0.96228802
H       -1.5854347      7.87827444      1.75810444
H       -1.6533064      7.86932087      0.20941083
O       -1.6430493      5.04807568      3.09791589
H       -1.9431066      5.93406773      3.33105397
H       -1.8032313      4.95562363      2.14486217
O       -2.7027790      7.63880634      3.29800582
H       -2.8651211      8.29318523      3.97173882
H       -3.5739481      7.35231352      2.97008944
O       -2.7996287      7.69786596      -1.1701686
H       -2.6032130      7.08321524      -1.8862863
H       -3.7336015      7.57671070      -0.9625632
O       1.26181996      6.60075951      0.54210550
H       0.44508439      7.10258865      0.72793847
H       1.97236514      7.23479843      0.50652057
O       -3.4569244      3.35207891      -2.5694706
H       -3.0071795      4.15502834      -2.8614018
H       -4.0471539      3.62877393      -1.8561127
O       -1.7860604      1.69774926      1.01048267
H       -1.9017494      1.40979230      0.09551213
H       -0.8390055      1.65607011      1.20354879
O       0.66182762      2.45694828      -1.3923716
H       -0.1549933      1.98789239      -1.6046630
H       0.88714153      2.20692611      -0.4871297
O       -2.0110025      5.74582386      -3.1467669
H       -1.6727596      6.03919792      -3.9893410
H       -1.2370442      5.53818226      -2.5929904
O       -5.6310896      3.90628171      2.32867217
H       -4.8255934      3.47096324      2.66169310
H       -6.3681802      3.48533106      2.76221132
O       -2.0584459      4.43199873      0.42424905
H       -1.9352722      3.48852777      0.60050809
H       -1.3736010      4.70528316      -0.1964837
O       0.98613590      1.89048672      1.38216352
H       1.02932644      2.79350471      1.74699569
H       1.62793076      1.37086833      1.85789132
O       -0.0205173      5.09317398      -1.4298025
H       0.52777731      5.61350012      -0.8300983
H       0.32492623      4.18780422      -1.4643877
O       -4.7062630      4.39542294      -0.2745280
H       -5.1430811      4.11104631      0.53781807
H       -3.7665989      4.49827194      -0.0495409
O       -3.3104479      2.78481770      3.14262795
H       -2.7214448      3.52953100      3.32868886
H       -2.8549275      2.24994206      2.47972393
O       -5.4827079      7.00889111      -0.4903950
H       -5.2609281      6.06171942      -0.5139302
H       -6.2720894      7.12157154      -1.0136010
O       -5.0688619      6.73705482      2.32725668
H       -5.2842736      5.80086279      2.41667604
H       -5.2611050      6.96678638      1.40994108
O       0.97586644      4.40775394      2.33700299
H       0.13726833      4.62703896      2.76553202
H       1.17450058      5.15131617      1.75516593
O       -1.9223976      1.25933313      -1.7671133
H       -2.1370344      0.50159431      -2.3045868
H       -2.4756648      1.99344337      -2.0880928