48
 Ord_Energy   -166.3286130
O       0.67973387      -8.9390459      5.36920738
H       -0.2020919      -8.9181642      5.73033905
H       1.07317591      -9.7893400      5.63615513
O       6.78577375      -12.301363      7.82232904
H       6.95759249      -12.888545      8.55317307
H       7.43555212      -11.577822      7.88271666
O       7.49551964      -12.512490      5.02147055
H       8.28874111      -11.962086      4.98853159
H       7.27897978      -12.604290      5.95708370
O       5.07221699      -8.3030662      6.57322168
H       4.26818752      -7.8303895      6.31000566
H       4.84255505      -9.2306966      6.72046614
O       2.74534798      -11.975812      3.22450829
H       3.68369150      -11.800420      3.41439366
H       2.71470165      -12.778595      2.71086287
O       5.78297424      -8.6023359      3.85326910
H       5.55917168      -8.4723787      4.78614044
H       5.11062765      -8.1317157      3.34481454
O       2.86717105      -7.1264257      5.48633337
H       2.07394934      -7.6768298      5.51927233
H       3.08371091      -7.0346264      4.55072069
O       4.57971621      -11.036580      6.65453482
H       4.80351925      -11.166537      5.72166348
H       5.25206280      -11.507200      7.16298962
O       3.57691717      -7.3375525      2.68547511
H       3.40509844      -6.7503705      1.95463097
H       2.92713881      -8.0610933      2.62508774
O       5.29047394      -11.335850      3.93458247
H       6.09450340      -11.808527      4.19779873
H       5.52013588      -10.408219      3.78733802
O       9.68295670      -10.699870      5.13859653
H       10.5647831      -10.720751      4.77746487
H       9.28951454      -9.8495760      4.87164927
O       8.46833134      -8.3352651      4.62931252
H       7.61124420      -8.3917827      4.18617725
H       8.28336716      -7.9753646      5.50607157
O       8.60305977      -10.298780      7.74746466
H       9.09482098      -10.459174      6.93148327
H       8.29978561      -9.3838605      7.69753599
O       7.61734295      -7.6631035      7.28329563
H       7.64798927      -6.8603200      7.79694080
H       6.67899942      -7.8384952      7.09341002
O       1.89435959      -11.303650      5.87849140
H       2.75144672      -11.247133      6.32162714
H       2.07932377      -11.663551      5.00173235
O       1.75963068      -9.3401355      2.76033974
H       1.26786923      -9.1797428      3.57632113
H       2.06290507      -10.255055      2.81026793