87
 Ord_Energy   -325.3178246
O       3.92914463      -3.4311395      2.45168093
H       4.43965138      -3.7103545      3.20683818
H       3.15601811      -2.9504061      2.79679648
O       2.71078046      0.04153105      -2.9435719
H       3.66638689      0.19424881      -2.9627345
H       2.35311184      0.67897681      -2.3120845
O       -1.3410852      1.03321986      1.62248737
H       -0.3997193      0.86377667      1.79859616
H       -1.6979108      1.45438761      2.40002482
O       6.20441787      -1.9276986      -3.7206001
H       5.70753807      -2.1157568      -4.5263111
H       5.87006045      -2.5404891      -3.0533965
O       3.21064110      -4.9588266      0.10992074
H       3.46335164      -4.5318786      0.93715656
H       3.77508097      -4.5804895      -0.5766959
O       -0.1124614      -3.1657556      1.47236465
H       -0.8966102      -2.6769991      1.17618323
H       0.00317937      -3.9254933      0.88971744
O       1.33364983      0.47714332      1.83361161
H       2.00357591      1.15815802      1.69598771
H       1.39239948      -0.1226680      1.07360638
O       -2.0968539      -1.5294718      0.52334712
H       -2.0343955      -1.3757288      -0.4278454
H       -1.9665166      -0.6693923      0.94047618
O       -1.4407646      -0.9622481      -2.2055963
H       -1.5959614      -0.6842455      -3.1158873
H       -0.8152354      -1.7009388      -2.2552640
O       0.44043701      -2.9384889      -2.2756267
H       0.45672433      -3.7391813      -1.7364199
H       1.19750949      -2.9628354      -2.8777134
O       0.51340873      3.51782302      -5.1138339
H       0.18812451      4.10607927      -5.7897626
H       -0.2435495      3.30423350      -4.5395178
O       1.72214653      -2.0411244      3.22346051
H       1.64375589      -1.1184722      2.95516340
H       0.99358658      -2.5075718      2.78695430
O       3.22537838      2.37819714      1.02942829
H       3.60084573      3.16411373      1.41577739
H       3.96214995      1.88304646      0.62302096
O       4.24760541      -1.6608442      0.30406459
H       3.30118123      -1.5726210      0.11706757
H       4.31145285      -2.2135744      1.09256628
O       1.82740419      2.15740564      -1.4100805
H       0.88614809      1.99754831      -1.2575956
H       2.25310981      2.29569226      -0.5558808
O       4.65932894      -3.4294612      -1.8146912
H       4.62129428      -2.7569283      -1.1183420
H       3.96515977      -3.2113659      -2.4524030
O       5.11454431      0.92379593      -0.1688955
H       4.91724144      0.00410840      0.05901461
H       5.32502249      0.91669163      -1.1113082
O       4.96474472      2.39482995      -5.0246613
H       5.52987614      3.09156525      -5.3475007
H       4.24572167      2.82371061      -4.5256462
O       5.43157246      0.57945400      -2.9284621
H       5.44615714      1.19749140      -3.6683309
H       5.81904150      -0.2604801      -3.2184283
O       2.73661436      -2.5913763      -3.7030467
H       3.23222984      -2.6167857      -4.5301353
H       2.70853709      -1.6610905      -3.4267359
O       1.50359424      -1.4893882      -0.0908259
H       1.23012264      -1.7919859      -0.9627255
H       1.03042299      -2.0632206      0.52943089
O       -1.4820404      0.02385517      -4.8469292
H       -1.8412133      -0.3468351      -5.6489984
H       -0.5365007      0.18124910      -5.0092683
O       2.90927985      3.49538501      -3.6453973
H       2.59721985      3.09694312      -2.8222568
H       2.11290924      3.66573128      -4.1635133
O       -1.5458901      2.61673154      -3.6092836
H       -1.7230852      1.77828026      -4.0536559
H       -1.3800733      2.39158527      -2.6842643
O       4.41111660      -2.3080581      -5.9384187
H       4.58586971      -2.7552283      -6.7618814
H       4.18222043      -1.3878326      -6.1606691
O       -0.8498117      1.52316091      -1.1039001
H       -1.0030671      0.63535772      -1.4605631
H       -1.1142272      1.49618656      -0.1771185
O       3.67691338      0.25733678      -6.4087287
H       2.75525191      0.40123378      -6.1608899
H       4.17088367      0.98848254      -6.0169059
O       1.16307132      0.74822647      -5.1721317
H       1.03616967      1.70600995      -5.1958550
H       1.69940284      0.54336173      -4.3918631
O       0.58830560      -5.1049012      -0.4758938
H       0.32868768      -6.0172859      -0.5696342
H       1.54028576      -5.1016381      -0.2648653