30
 Ord_Energy   -92.8772583
O       6.52442408      1.48921919      8.94741154
H       6.66339970      2.45353580      8.93911552
H       7.04183245      1.14307451      9.66992474
O       5.31299162      4.17936039      4.47708702
H       6.13185501      4.33086538      4.96652555
H       4.59987020      4.53517485      5.02265692
O       7.69908619      4.19504690      6.02387428
H       8.58393860      4.39217567      5.72817707
H       7.62219667      3.22330165      6.05379438
O       2.90557551      2.02044845      6.29484320
H       2.86701918      2.97447658      6.15927887
H       3.56343961      1.69830751      5.66607428
O       3.74269557      2.13924313      8.93120861
H       3.39695430      1.95375752      8.04464054
H       4.62719965      1.75644708      8.96721554
O       7.23848438      1.52407539      6.19050980
H       6.47472715      1.34488821      5.62709332
H       6.96444893      1.34815586      7.09960270
O       6.74318552      4.20371675      8.69915771
H       7.07294750      4.35179949      7.80309629
H       5.84469700      4.55323219      8.72552204
O       3.17610025      4.92698431      6.19132710
H       2.46567965      5.55362654      6.07580948
H       3.43779182      4.97127390      7.12472439
O       3.93096137      4.81961584      8.86167431
H       3.61163926      5.21639776      9.66751194
H       3.81916547      3.85446215      8.95797920
O       5.00215435      1.47285151      4.43518925
H       4.93299055      1.12148166      3.55149794
H       5.10761166      2.43765903      4.34727955