51
 Ord_Energy   -178.0631100
O       -13.267982      21.6479149      6.24503231
H       -12.532047      21.2269440      6.70966387
H       -13.668034      22.2775135      6.86037779
O       -16.861740      16.3419724      7.05068016
H       -17.153528      15.4348001      7.10211945
H       -16.124570      16.4309654      7.67999887
O       -12.798374      17.7695065      7.08567238
H       -12.249788      18.5223503      7.34126854
H       -12.753547      17.6852951      6.12377977
O       -18.016393      20.0390320      10.0219564
H       -18.267780      19.4475460      9.28888226
H       -18.733757      20.0198059      10.6489639
O       -17.089763      22.0978527      8.23358059
H       -17.428073      21.5242462      8.93122864
H       -17.306858      21.6513176      7.40390921
O       -16.590614      19.7517414      3.45537567
H       -16.851196      19.9258442      2.55516553
H       -15.664504      20.0419235      3.54004622
O       -17.409999      20.3393879      6.06358624
H       -17.313182      20.2516880      5.10912752
H       -16.580585      19.9959698      6.43605900
O       -14.778304      16.7063885      8.76334667
H       -13.973211      16.9048767      8.26584339
H       -14.945192      17.4784546      9.32004452
O       -14.977070      19.5725918      7.06727123
H       -14.452494      20.3254948      6.76633883
H       -14.388401      18.8096924      7.02691126
O       -14.573430      23.1042957      8.27373505
H       -14.629448      24.0384769      8.45648575
H       -15.487156      22.7667656      8.27342892
O       -13.176611      21.0874538      9.77005482
H       -13.868532      20.4456787      9.98239326
H       -13.632823      21.8455200      9.38413906
O       -13.104097      17.6572952      4.30989695
H       -14.049464      17.4255390      4.37724686
H       -12.728601      17.0899410      3.64187074
O       -15.755047      17.2123890      4.55385303
H       -16.201353      17.9999657      4.22033310
H       -16.192724      16.9566383      5.37476635
O       -18.535968      18.5167007      7.84135151
H       -18.033535      17.7246017      7.61633539
H       -18.335273      19.1541119      7.14143705
O       -15.314738      19.2856064      9.82002449
H       -16.216293      19.5172958      10.0726185
H       -15.259264      19.4508362      8.86529160
O       -11.479412      20.1642170      7.87855482
H       -10.571001      20.2892170      8.13956070
H       -12.030799      20.4623775      8.62557316
O       -13.959082      20.3665161      3.81333709
H       -13.680984      20.9239216      4.55139828
H       -13.539719      19.5079231      3.95047855