24
 Ord_Energy   -68.3030014
O       1.94328213      8.48099995      3.86301613
H       2.58050799      8.25692272      3.16007686
H       1.79267275      9.42050076      3.80727029
O       0.36587194      4.47122765      5.44657898
H       0.24043570      5.09440851      4.70918083
H       -0.3914340      4.57325935      6.01558876
O       5.87093115      7.47150707      3.86637878
H       6.56002092      7.98125029      4.28422213
H       5.20458317      7.30886936      4.55503941
O       2.76266980      4.89091158      2.24463797
H       2.88110566      4.11041880      1.70849657
H       2.94585681      4.62858629      3.16064954
O       3.75970793      7.57980871      2.05212331
H       3.49506664      6.65515184      1.97367346
H       4.58964729      7.57638264      2.55222654
O       3.73764038      6.99777269      5.56559563
H       3.48463202      6.07638407      5.43582916
H       3.05562639      7.52477694      5.12967539
O       0.40687892      6.17220640      3.31655002
H       1.06602454      5.73593903      2.76303625
H       0.79059321      7.03201056      3.53499818
O       3.02204251      4.25183296      4.96812630
H       2.08103490      4.26176596      5.21952009
H       3.44260502      3.57283592      5.48912907