15
 Ord_Energy   -31.7282162
O       23.5601234      19.7818775      2.20390344
H       24.2996521      19.1758614      2.37590909
H       23.7802467      20.5972672      2.64739394
O       23.0152569      18.9272289      -0.3725213
H       23.1199474      19.3008614      0.51835996
H       22.0820732      18.7582417      -0.4762738
O       27.6944351      16.8206825      3.78142786
H       27.4192581      17.5736485      3.24208951
H       27.9103088      17.1927319      4.63560629
O       25.3331165      17.4228077      -0.2920437
H       24.5074501      17.9149246      -0.4341977
H       25.7730942      17.3938503      -1.1374542
O       25.6550179      17.9785900      2.37944221
H       25.8487968      17.1864319      2.88816071
H       25.6344624      17.7162704      1.44457948