84
 Ord_Energy   -312.8952016
O       -5.8694330      1.29641730      -1.7713400
H       -6.6002725      0.98918403      -2.3003654
H       -5.5207499      0.51964980      -1.2960801
O       1.38977872      0.93314867      -0.2510027
H       1.95495122      1.08267984      0.51640298
H       0.52124492      0.66620457      0.08945618
O       -2.2906887      -1.9401793      -0.7278511
H       -1.7840517      -1.9254584      -1.5506184
H       -1.9977916      -2.6980827      -0.2070777
O       -4.8418276      -0.8056418      -0.4393233
H       -3.9866526      -1.2172083      -0.6175437
H       -4.9779573      -0.8848718      0.51255976
O       -3.1840889      5.21322431      -2.3834377
H       -3.2547782      5.89152469      -3.0491472
H       -2.2399529      5.14579624      -2.1473777
O       1.48758702      -1.6927230      -1.2457988
H       1.56795841      -0.7713652      -0.9649614
H       0.79114015      -1.7111247      -1.9133253
O       -6.1231026      3.23996565      0.34531781
H       -5.7269963      2.76081105      1.08605651
H       -6.1346643      2.61477082      -0.3879534
O       -4.4469528      5.44065937      0.19773751
H       -5.0932527      4.71965278      0.23104001
H       -4.0560989      5.41994846      -0.6817992
O       -0.9058154      4.45348200      1.08643685
H       -1.5140577      4.99411609      1.60544525
H       -0.2786370      4.02999099      1.69161049
O       -1.0165095      2.05355923      4.79247847
H       -0.9259936      2.17334715      5.73390530
H       -1.8054213      2.55833384      4.52226734
O       -4.9963892      -0.9725883      2.38350883
H       -4.1963201      -1.4764087      2.61324592
H       -5.7015520      -1.3191657      2.92414081
O       0.72502476      3.10890861      2.80988747
H       1.42670512      2.47303566      2.63441633
H       0.19925050      2.74819343      3.53479584
O       1.76769551      -1.2375075      2.91046402
H       1.65691979      -1.9527266      2.27558830
H       0.87692309      -1.0056378      3.21258481
O       -3.3848526      2.43498552      -2.2825579
H       -4.2853286      2.09467176      -2.1990439
H       -3.4277153      3.39161960      -2.4124376
O       2.75805015      1.16916431      2.17190050
H       2.45880885      0.29321003      2.47547359
H       3.65242511      1.27891938      2.48276490
O       -3.1727864      3.43571788      3.98882414
H       -3.1298729      4.28097251      3.52681437
H       -3.7579998      2.87201518      3.46321148
O       -0.6274332      4.86940871      -1.6220421
H       -0.6444424      4.81213828      -0.6549251
H       -0.0567175      4.15226339      -1.9191975
O       -1.2955315      -3.9118259      1.02870515
H       -0.3436065      -3.7227208      1.03535452
H       -1.3870882      -4.8619189      1.03303741
O       -4.5650391      1.82216787      2.21546056
H       -3.8653777      1.95288625      1.55600233
H       -4.6991882      0.87300889      2.31429973
O       -1.0477031      0.11824314      0.71659379
H       -1.5926397      0.91240647      0.60558908
H       -1.4791832      -0.5941680      0.23052460
O       1.40447120      -3.3011698      0.90595537
H       1.45311596      -2.7348211      0.11374774
H       2.16539661      -3.8759097      0.87851701
O       -2.5491502      2.32178285      0.38512803
H       -2.8332639      2.39752310      -0.5341853
H       -2.0061050      3.09055559      0.60467937
O       1.00572892      2.63969573      -2.3525264
H       1.18122861      2.07430455      -1.5811871
H       1.83703261      2.74479471      -2.8089014
O       -2.7314029      -2.3317369      2.98931544
H       -2.0698583      -1.6851725      3.27600425
H       -2.2767477      -2.9216386      2.37954146
O       -2.9723015      5.80177167      2.41278438
H       -3.5434483      5.69436498      1.62909079
H       -3.0896065      6.69777547      2.71537302
O       -0.8166828      -0.3765682      3.41517841
H       -0.8985335      -0.1461261      2.47596947
H       -0.9248108      0.43431094      3.92666561
O       -1.1667071      1.00621950      -3.1709396
H       -1.9723719      1.47469982      -2.9145968
H       -0.4331653      1.60158114      -2.9781605
O       -0.7282942      -1.6242330      -3.0209129
H       -0.8112470      -1.9930071      -3.8957107
H       -0.8978876      -0.6664079      -3.1028822