30
 Ord_Energy   -92.6407547
O       9.23136234      3.46947002      7.50641060
H       9.05221653      2.59909821      7.10642481
H       10.1733561      3.52131438      7.64230537
O       8.49960232      1.08022475      6.47204161
H       7.78930807      0.74459666      7.03086805
H       8.06966782      1.31786692      5.63570642
O       3.90481687      3.69472170      4.01929331
H       4.76266527      4.10236788      3.82303190
H       3.58935595      3.34150648      3.19015479
O       4.74284458      2.44969416      6.34482718
H       4.88474607      3.21607041      6.91711521
H       4.29310179      2.79167652      5.55947828
O       6.07206488      0.65911722      7.98359776
H       5.55476332      -0.1106744      8.20615768
H       5.52571154      1.19677174      7.38569593
O       6.87773991      1.94475865      4.42287207
H       6.16177273      2.04253387      5.06389427
H       6.91623211      2.79907322      3.97943306
O       6.51855183      4.69248772      3.63529825
H       6.84408808      4.90801525      4.52835369
H       6.95105791      5.29424620      3.03612661
O       7.36887741      5.17148113      6.16237020
H       8.07506943      4.64717007      6.56046915
H       6.63657331      5.13880110      6.79029703
O       7.07024431      2.99629021      9.30433559
H       6.77876854      2.12215757      9.01427937
H       7.88736105      3.17838454      8.82101536
O       5.31239080      4.63177347      8.05529118
H       4.77415562      5.16033649      8.63765144
H       5.91287661      4.10887432      8.61669159