72
 Ord_Energy   -263.7240765
O       12.3528499      11.5413466      -14.013005
H       12.5452509      11.1011428      -14.854519
H       13.1081497      12.1066389      -13.821914
O       15.9341455      6.92182298      -14.047354
H       15.2523576      6.68749157      -13.402938
H       16.7609870      7.02977624      -13.557848
O       17.6030964      9.75901270      -11.064727
H       16.7363705      10.1464408      -11.250283
H       17.5628262      9.39038632      -10.173402
O       16.8239696      11.7175143      -14.733651
H       16.2792552      10.9195166      -14.649249
H       17.6231212      11.5609559      -14.206637
O       12.6798355      7.21623338      -16.556307
H       12.4198936      7.12065615      -15.621947
H       12.0289009      6.74801997      -17.072194
O       14.7083753      7.60844462      -8.6988720
H       14.1263870      8.08777248      -9.3036544
H       14.7375533      6.69868412      -9.0198051
O       14.0055842      6.49998272      -12.097738
H       14.3329750      5.89106685      -11.424564
H       13.8155768      7.33412934      -11.645103
O       15.1070746      10.7407678      -11.796318
H       15.0757007      10.2499994      -12.635100
H       14.9698643      11.6601744      -12.046258
O       17.5715773      11.2434629      -17.333827
H       17.3269230      11.5228394      -16.435715
H       18.0849300      11.9506019      -17.715217
O       15.1485586      5.07088131      -9.9851609
H       15.1498019      4.17302946      -9.6656208
H       16.0807070      5.33790974      -10.082778
O       18.1628898      8.54000924      -16.629966
H       17.3423481      8.05426866      -16.770901
H       18.0120176      9.43566593      -16.957032
O       15.5446613      7.31956721      -16.761050
H       15.7498651      7.04973989      -15.853085
H       14.5895768      7.19813114      -16.835088
O       19.8614880      8.53157712      -14.527834
H       19.2650962      8.49893485      -15.297424
H       20.7274390      8.28440002      -14.840747
O       15.1600968      9.57781134      -14.257581
H       15.4495928      8.65769507      -14.247452
H       14.4298125      9.65624480      -14.883344
O       11.2340595      9.55326852      -12.540832
H       10.3239860      9.78512537      -12.374437
H       11.6238766      10.2952833      -13.036468
O       17.6684410      6.04254759      -10.197408
H       17.9429786      6.38913463      -11.056942
H       17.6908287      6.79492548      -9.5933220
O       12.0095150      7.16780363      -13.947463
H       11.6738430      7.96513859      -13.521037
H       12.6415866      6.78111551      -13.327444
O       18.9736732      10.9509370      -13.241947
H       18.6285195      10.6277611      -12.398993
H       19.3768346      10.1880589      -13.674606
O       18.1943210      7.47411758      -12.553915
H       18.8601758      7.73410276      -13.202565
H       17.9659153      8.27329076      -12.056393
O       17.2965194      8.42033073      -8.6164007
H       17.5610467      8.60545373      -7.7193938
H       16.3515632      8.18501821      -8.5884834
O       15.1486162      9.91033673      -17.981762
H       15.9567685      10.4287737      -17.894487
H       15.3618008      9.02350111      -17.661447
O       13.3305178      8.89065458      -10.790372
H       13.9570861      9.59096430      -11.022768
H       12.5172505      9.09623816      -11.268122
O       14.7832145      13.0663918      -13.392230
H       14.8836491      14.0148692      -13.373891
H       15.5265873      12.7187345      -13.911806
O       13.1282286      9.98074081      -16.172231
H       12.8045420      9.08385774      -16.319985
H       13.7785957      10.1398437      -16.873798