21
 Ord_Energy   -57.5424919
O       33.9702606      4.12692070      -5.4629569
H       33.1053314      3.84976578      -5.8129334
H       34.4497948      4.48629379      -6.2039465
O       34.1392822      2.70040798      -3.1684086
H       34.1566963      3.20283985      -4.0034170
H       35.0452499      2.56692314      -2.9039979
O       32.3453712      0.54960269      -6.7925839
H       32.0966072      -0.3090023      -7.1244916
H       32.3907967      0.45795420      -5.8261003
O       32.3050957      0.62425780      -4.0232243
H       31.4921341      1.13916361      -3.9376549
H       33.0036316      1.20198154      -3.6934957
O       31.8390236      4.01844740      -2.2629385
H       32.6742668      3.56704044      -2.4606130
H       32.0295830      4.95223331      -2.3278603
O       31.5637302      3.18691063      -6.3343639
H       30.9708462      3.04328704      -5.5875716
H       31.8014030      2.30206943      -6.6503305
O       30.1692638      2.55009723      -3.8803749
H       30.6688538      3.10784674      -3.2605054
H       29.2743416      2.51156664      -3.5534062