39
 Ord_Energy   -130.4752960
O       4.38752413      14.0458097      -9.0011444
H       4.55671740      14.6880817      -9.6842842
H       4.03767920      13.2576828      -9.4520645
O       -1.8464795      10.7457228      -8.2478904
H       -2.7155690      11.0243473      -8.5228099
H       -1.7069808      11.0979185      -7.3499884
O       1.48677814      12.3176403      -6.3036599
H       1.73660493      11.4379959      -5.9834256
H       2.29352427      12.8458824      -6.2943038
O       4.67675781      10.6715794      -6.3975610
H       3.92839122      10.2958117      -5.9150733
H       4.56204891      11.6289949      -6.3630104
O       3.34880090      11.7791433      -10.084449
H       2.42431045      11.6858644      -9.8186502
H       3.79847217      10.9825525      -9.7772913
O       1.86986375      8.87874413      -8.2291517
H       2.78892183      8.88405991      -8.5226717
H       1.49305296      9.72081280      -8.5265407
O       -1.1814236      11.5824366      -5.7432365
H       -1.0055856      10.7760410      -5.2420826
H       -0.3263149      12.0224791      -5.8439817
O       4.55206299      9.48555470      -8.8457098
H       4.68500662      9.91175175      -7.9799079
H       5.36062813      9.02559948      -9.0536737
O       4.05287600      13.4805012      -6.3782444
H       4.19926786      13.7368975      -7.3060379
H       4.47895432      14.1408453      -5.8383488
O       -0.7383745      8.26225376      -7.3181433
H       -1.2083988      8.99378395      -7.7383527
H       0.14465743      8.25571442      -7.7110948
O       0.83274078      11.3942070      -8.8647565
H       1.06080937      11.8200769      -8.0249776
H       -0.1179220      11.2324543      -8.8396358
O       -0.4472158      9.00016117      -4.7112164
H       -0.6012861      8.64612579      -5.6060895
H       -0.8496536      8.38979530      -4.0996217
O       2.15271235      9.70074940      -5.5623087
H       2.07480001      9.32529736      -6.4524297
H       1.36059070      9.42499256      -5.0859112