36
 Ord_Energy   -118.5861820
O       6.13206196      -4.2030444      -23.850656
H       6.82280588      -3.5916144      -23.567451
H       5.33361244      -3.6672463      -23.975496
O       3.82947993      -7.0707235      -22.318630
H       4.22159338      -7.0594220      -23.201032
H       4.42229939      -6.5423903      -21.766674
O       5.43613577      -5.0330939      -21.229837
H       5.72600222      -4.8482666      -22.133718
H       5.91882229      -4.4060592      -20.672477
O       4.97915506      -6.4952483      -24.877773
H       5.50260019      -6.9580383      -25.527370
H       5.50493383      -5.7305512      -24.590036
O       3.06843352      -3.5648164      -21.377389
H       2.37768984      -4.1762466      -21.660593
H       3.86688304      -4.1006145      -21.252548
O       1.51767445      -5.6498794      -22.473543
H       2.28533673      -6.2431449      -22.380172
H       0.74564105      -6.1591248      -22.242124
O       4.22134066      -1.2726125      -20.350273
H       3.69556189      -2.0373096      -20.638010
H       3.69789529      -0.8098226      -19.700674
O       5.37101603      -0.6971371      -22.909416
H       4.77819633      -1.2254703      -23.461372
H       4.97890234      -0.7084390      -22.027013
O       7.68282127      -2.1179812      -22.754503
H       8.45485497      -1.6087359      -22.985920
H       6.91515875      -1.5247156      -22.847873
O       2.53445530      -4.9400458      -25.095714
H       3.27946591      -5.5502862      -25.157697
H       2.05463433      -5.1947631      -24.297405
O       3.76435971      -2.7347667      -23.998209
H       3.47449350      -2.9195940      -23.094326
H       3.28167367      -3.3618013      -24.555566
O       6.66604042      -2.8278150      -20.132331
H       7.14586115      -2.5730974      -20.930639
H       5.92102957      -2.2175743      -20.070348