81
 Ord_Energy   -300.1894268
O       -0.7821161      -2.4983671      3.04609925
H       -1.0464187      -1.6175807      3.33602461
H       -1.5886511      -2.9595675      2.77542684
O       1.94285358      -1.3899353      -2.3328756
H       1.07459119      -1.0217289      -2.5650898
H       1.78862471      -2.2459854      -1.9168787
O       -2.1943665      1.05891978      1.14356044
H       -1.4205881      1.57936654      0.87643492
H       -2.0683884      0.80876323      2.06712662
O       2.59628559      -1.1636368      -5.0483583
H       2.51672061      -1.3086248      -4.0962077
H       2.52973455      -0.2084325      -5.1759174
O       2.30212637      0.83182098      -0.6983082
H       2.67892296      0.55691870      0.14591677
H       2.24081509      0.03499126      -1.2442119
O       -1.1106925      -4.1522624      -2.1756026
H       -1.2049371      -3.6867235      -3.0176826
H       -1.8645477      -3.8817594      -1.6363281
O       -3.0527847      -3.7840240      2.06887392
H       -3.1422764      -3.5332104      1.13617797
H       -3.4387049      -4.6533456      2.14365407
O       2.07879633      1.61104674      -5.3952513
H       2.65183908      2.18804861      -5.8939068
H       2.05102643      1.96690591      -4.4897755
O       -1.3300924      -2.4612580      -4.3957862
H       -0.7350370      -2.4710481      -5.1545501
H       -1.0723930      -1.7000557      -3.8517220
O       -3.0690198      -2.9158801      -0.5673970
H       -3.7635588      -2.4367081      -1.0355354
H       -2.3518272      -2.2804925      -0.4162615
O       -2.8516206      1.25120634      -5.6314689
H       -1.9633089      1.00263692      -5.9474002
H       -3.2845998      1.69939496      -6.3528418
O       -3.8115894      -1.1814423      -4.4489346
H       -3.5742411      -0.3505645      -4.8761060
H       -3.0278630      -1.7444107      -4.5141269
O       1.15554464      -2.1803429      1.21296362
H       0.51224029      -2.4239257      1.90005534
H       1.21004001      -2.8772368      0.54816204
O       2.01220159      2.60245560      -2.8842003
H       2.24355902      2.05126061      -2.1258505
H       1.25848717      3.13693689      -2.6076321
O       -4.8920763      -1.3150187      -1.9794503
H       -5.8359911      -1.4223473      -2.0627515
H       -4.5343491      -1.2744907      -2.8851058
O       -0.3671205      0.56209782      -6.3989243
H       0.42733523      0.98898456      -6.0545000
H       -0.1357107      -0.3656409      -6.5249351
O       -1.3516056      0.24908068      3.71192775
H       -0.5044410      0.68320034      3.50434194
H       -1.6063654      0.54567352      4.58185619
O       -0.3648160      3.88690473      -1.9832293
H       -0.9725959      3.26236168      -2.4185261
H       -0.7255916      4.75993722      -2.1108620
O       -3.7478522      1.19086294      -1.2043041
H       -4.1746541      0.34222721      -1.3711615
H       -3.3652829      1.15074098      -0.3182582
O       0.13232366      2.31383915      0.29394309
H       0.82014579      1.74070409      -0.0741473
H       -0.0558560      2.97447809      -0.3829160
O       0.52829068      -2.1554589      -6.4788042
H       0.83317163      -2.6900574      -7.2064168
H       1.31903774      -1.8758915      -5.9823160
O       -1.0537858      -1.0814745      -0.1697498
H       -1.4753682      -0.3662725      0.32480586
H       -0.2842157      -1.3777501      0.32958403
O       0.92502649      1.48079007      2.88456237
H       1.68011419      0.92818814      2.64800314
H       0.68982041      1.95708324      2.07747160
O       1.30859550      -3.8542709      -1.0353652
H       1.79215996      -4.6678758      -1.1509116
H       0.42950327      -3.9949942      -1.4317879
O       -2.0000297      2.03726034      -3.0897699
H       -2.3509950      1.86588724      -3.9715441
H       -2.6710171      1.77069207      -2.4393482
O       2.93272545      -0.2373422      1.82734617
H       3.70592091      -0.6174043      2.23526948
H       2.32477405      -0.9732202      1.62963528
O       -0.5647989      -0.3755364      -2.7550768
H       -0.7872008      -0.6148771      -1.8418859
H       -0.9649156      0.48317968      -2.9280420