21
 Ord_Energy   -56.9344711
O       29.3025684      2.72485566      -3.6645402
H       28.3973064      2.67911482      -3.3703856
H       29.3249149      2.35882497      -4.5680613
O       32.0078201      3.22441936      -6.7748661
H       32.5903664      3.01486754      -6.0294065
H       32.5688591      3.28294063      -7.5448417
O       30.8445415      -0.6590176      -5.2845077
H       31.1694031      -0.1722390      -4.5086369
H       30.7336960      -1.5621228      -4.9995112
O       31.5880890      1.02070773      -3.2120025
H       32.2958870      1.60454726      -3.5098061
H       30.7951221      1.57182121      -3.1873972
O       31.1936913      4.70465469      -4.3296709
H       30.4745197      4.14438820      -4.0032463
H       31.1974449      4.58188391      -5.2850928
O       29.6608276      1.70287967      -6.1531844
H       29.9956074      0.81031984      -5.9784388
H       30.4083080      2.19721842      -6.5110540
O       33.3582077      3.03885555      -4.2700381
H       32.6721649      3.71457219      -4.1233339
H       34.1607437      3.37220788      -3.8773522