72
 Ord_Energy   -264.1006917
O       16.3812280      11.2006702      -15.883111
H       15.4579105      11.0668885      -15.634070
H       16.5761799      10.5341117      -16.550809
O       14.4684608      6.42062606      -16.053612
H       15.2929266      6.78616445      -15.693252
H       14.7255071      5.62333178      -16.531735
O       17.8921766      6.98523049      -11.591515
H       17.5001777      7.78087900      -11.985447
H       18.7970768      6.95041323      -11.920442
O       20.0432720      6.18206610      -17.601624
H       20.6398605      5.77686712      -18.224624
H       19.1484194      6.12056158      -17.984526
O       17.4883712      6.17181836      -18.463905
H       17.1218482      7.05119205      -18.317072
H       16.8617528      5.53468425      -18.099122
O       13.8356036      8.70021146      -10.020349
H       14.6418085      8.19274354      -9.8155509
H       13.6289996      9.21044754      -9.2419301
O       13.8316617      6.40954358      -13.386262
H       14.6200070      5.94590501      -13.068187
H       13.8466776      6.33927456      -14.349533
O       16.7659027      9.10939006      -12.867339
H       15.8089821      9.22398960      -12.811275
H       17.1723426      9.95991226      -13.075160
O       16.9712648      3.93295892      -14.837819
H       17.7972549      4.43356576      -14.895175
H       16.5817663      4.18259340      -13.990596
O       12.7093964      6.15195759      -10.823568
H       12.9097234      7.03439066      -10.489244
H       12.8986271      6.18622121      -11.772066
O       19.9817613      9.39262725      -14.376074
H       19.4190697      10.1381056      -14.143854
H       19.9003480      9.27979749      -15.334820
O       15.7612810      4.24690281      -17.230672
H       16.1878039      4.06787133      -16.372104
H       15.5142184      3.40312645      -17.598587
O       19.0747782      5.74501615      -15.012271
H       19.5265621      5.86581452      -15.857738
H       19.6169014      6.14183704      -14.319426
O       19.6073264      8.96761916      -17.088121
H       19.8777745      8.07055107      -17.319417
H       18.7053435      9.05948169      -17.416605
O       16.8657513      7.48592759      -15.146976
H       16.8887944      8.06654591      -14.377074
H       17.6177157      6.88309617      -15.088916
O       13.7074483      10.5970512      -15.087482
H       12.9650095      11.1921498      -15.009974
H       13.7489869      10.0974976      -14.256491
O       14.7360694      4.56427159      -9.9329810
H       14.4503605      3.82068201      -9.4098096
H       13.9341001      5.04882590      -10.199167
O       14.0291330      8.85084414      -17.381444
H       13.8025471      9.45137101      -16.662090
H       14.0131166      7.96419577      -16.993176
O       20.3723096      7.14927179      -12.959913
H       21.2715737      7.13233687      -12.644758
H       20.2573180      7.99131913      -13.440218
O       16.0490627      5.02847691      -12.393868
H       16.7416185      5.66026361      -12.153858
H       15.6665359      4.70876082      -11.567382
O       15.9828021      7.11012256      -9.5076957
H       15.6410676      6.20724528      -9.5021981
H       16.7500874      7.09588479      -10.094237
O       13.9838590      9.09537525      -12.779784
H       13.8615968      9.11090271      -11.821719
H       13.9011943      8.16701284      -13.048053
O       18.0348461      11.4142996      -13.772233
H       18.2158223      12.3257164      -13.561305
H       17.4801605      11.4129087      -14.573946
O       16.7704821      8.84292699      -17.534562
H       15.8138186      8.90580177      -17.677769
H       16.8816664      8.39423329      -16.679516