45
 Ord_Energy   -152.7979280
O       -9.5093498      -2.3985276      3.71978068
H       -8.7238798      -2.2136290      4.25204229
H       -10.262796      -2.1085405      4.24794960
O       -4.9074525      0.06031569      0.29134673
H       -4.5468950      0.31288841      -0.5539784
H       -5.4287958      0.81744814      0.61308443
O       -8.9165134      1.78635001      6.69241953
H       -8.1966047      1.61628985      6.06027508
H       -8.6733694      2.56593609      7.18456745
O       -8.6848020      1.12050235      2.50856543
H       -8.8205614      0.29224980      2.03143907
H       -9.4571218      1.24698174      3.08049345
O       -4.6842675      2.11979866      3.83448839
H       -4.2962465      1.27059770      3.55398536
H       -3.9620609      2.67521739      4.11340427
O       -11.445009      -1.2866904      5.45607519
H       -12.223231      -1.6182302      5.89525127
H       -10.743032      -1.2343835      6.12990522
O       -10.652917      1.27932250      4.43517542
H       -10.206728      1.58990109      5.23220015
H       -11.041048      0.43028560      4.68060207
O       -5.2021613      -2.6626792      3.61525083
H       -5.6525812      -2.5555679      2.75692606
H       -4.8136830      -3.5336449      3.61420941
O       -6.3695225      -2.1660766      1.23073077
H       -5.8922429      -1.4458994      0.79899961
H       -7.3059101      -1.9377938      1.18203247
O       -9.0864505      -1.3886970      1.27971029
H       -9.7734279      -1.6459473      0.67111623
H       -9.2909164      -1.8101095      2.13578677
O       -7.2530770      -1.6510229      5.26026201
H       -7.1444468      -0.7009389      5.11171389
H       -6.5148901      -2.0764343      4.80716896
O       -9.3099393      -1.0094078      7.12125826
H       -9.1837644      -0.0520462      7.14897585
H       -8.5507249      -1.3624627      6.63802671
O       -6.2817544      2.11293197      1.41855431
H       -7.1745166      1.88887942      1.71528614
H       -5.7700500      2.30031443      2.21456933
O       -7.0890250      1.10125065      4.77461338
H       -6.2330470      1.48560739      4.55058146
H       -7.6205530      1.08369780      3.96430278
O       -3.8029465      -0.2590610      2.90898514
H       -4.1877260      -1.0772001      3.24601293
H       -4.0437889      -0.2161890      1.97420955