69
 Ord_Energy   -251.9942686
O       12.1606779      10.7876224      -15.828314
H       12.9746360      11.2956842      -15.922622
H       12.3241390      9.93022006      -16.245476
O       14.9600622      6.72322631      -12.478180
H       15.8767052      6.90439072      -12.232429
H       14.7632766      7.33258549      -13.206630
O       17.5116626      10.3338357      -12.405854
H       16.6352030      10.5936703      -12.726603
H       17.5694755      10.6469931      -11.495093
O       11.8465001      6.06074540      -15.257148
H       11.0919797      5.49395568      -15.394661
H       11.6499653      6.60086089      -14.469702
O       14.6267531      10.9218838      -9.2984436
H       14.0079783      10.9656525      -10.038752
H       14.4792980      10.0605408      -8.8874075
O       13.0462172      7.80745869      -10.855645
H       13.7272732      7.35280082      -11.375590
H       13.3923385      7.86468439      -9.9571430
O       14.9952480      10.8561102      -13.395631
H       14.3114642      10.8415907      -12.713922
H       14.9508138      9.99710669      -13.847280
O       16.3807363      6.50885862      -15.966075
H       16.0538431      6.83933069      -16.810912
H       15.7212830      5.89673629      -15.601956
O       14.4481863      8.18837996      -8.4437046
H       15.3685032      8.09037916      -8.7484910
H       14.4036337      7.79695074      -7.5755768
O       18.6762247      6.82189744      -14.548720
H       17.8882459      6.64153871      -15.091165
H       19.3620676      6.23499271      -14.855910
O       14.4618583      5.03070907      -14.688204
H       14.6243941      5.38878736      -13.804792
H       13.5567936      5.28404088      -14.907227
O       16.3639937      10.0907741      -17.094208
H       17.0599872      9.95794622      -16.433094
H       15.8053406      10.8008098      -16.760245
O       14.7657164      8.44594154      -14.618727
H       14.0261502      8.45087159      -15.238365
H       15.4784557      7.96244640      -15.054097
O       10.9142847      10.4624390      -13.456532
H       11.3466085      10.6181161      -14.315413
H       10.0580618      10.8795534      -13.500519
O       17.0129514      8.15909295      -9.3444377
H       17.2512828      9.09416240      -9.3779379
H       17.2845508      7.79083158      -10.194731
O       11.3508533      7.64946050      -13.124200
H       11.8078826      7.60395629      -12.275116
H       11.1292615      8.57873628      -13.258362
O       18.2152913      9.61980328      -15.074945
H       18.1079077      9.98171105      -14.186613
H       18.5157273      8.71274988      -14.947488
O       17.5820484      7.55775226      -12.046761
H       18.0510242      7.20020079      -12.810043
H       17.5522596      8.51755600      -12.176952
O       17.3149371      10.9967640      -9.6794204
H       16.3510772      11.0577734      -9.5508069
H       17.7108341      11.6484305      -9.1072578
O       15.2633041      7.88676928      -18.154145
H       15.6718167      8.71104705      -17.825524
H       15.4328599      7.84857975      -19.091136
O       12.9675488      10.5172740      -11.541291
H       12.2071713      10.6221370      -12.126520
H       13.0011270      9.57783794      -11.305994
O       14.7112092      12.0849396      -15.823442
H       14.8518400      11.7624682      -14.916622
H       14.9409173      13.0109821      -15.824324
O       12.8731183      8.24030625      -16.687509
H       12.4933665      7.41958804      -16.346378
H       13.5967391      8.02375654      -17.289695