39
 Ord_Energy   -129.7266850
O       1.82660866      9.17393398      -7.4427323
H       1.15688574      8.48921204      -7.3265833
H       1.86378086      9.66749763      -6.6094212
O       -0.3270388      9.08137131      -4.5304656
H       -1.0580302      9.70279789      -4.6464467
H       0.47717574      9.61628246      -4.5401759
O       1.83173490      10.8336468      -5.1829853
H       1.18184710      11.4993601      -5.4511222
H       2.70256710      11.2286139      -5.3140792
O       0.23773065      11.1396484      -8.6380310
H       0.84462076      10.4647112      -8.3000707
H       -0.6422126      10.7439222      -8.5617618
O       3.05751991      14.0767689      -7.4695558
H       2.85400009      13.6306581      -8.3010749
H       3.53031898      13.4326849      -6.9290251
O       -1.9998859      9.73699760      -7.8639612
H       -2.2664072      10.1447716      -7.0307264
H       -1.5583915      8.91512489      -7.6146073
O       -0.3994843      7.57398176      -6.7943553
H       -0.5770673      6.65212965      -6.6291399
H       -0.3916558      8.01983261      -5.9277634
O       0.79597330      15.0615244      -6.3165144
H       1.64130414      14.8058672      -6.7255082
H       0.85413414      15.9969263      -6.1461591
O       4.30517721      11.9110909      -6.0506587
H       5.19575262      11.8872833      -5.7106638
H       4.31212616      11.4217958      -6.8930029
O       -0.1648322      12.5213346      -6.2104144
H       -0.0288355      12.1710711      -7.1009507
H       0.09205485      13.4546719      -6.2109313
O       -2.2577981      11.0331411      -5.2924819
H       -1.5619280      11.6564932      -5.5658283
H       -2.9403321      11.5493317      -4.8720073
O       2.32712984      12.5208158      -9.7612543
H       1.50681186      12.0958967      -9.4590034
H       2.19145489      12.7588148      -10.674955
O       4.01769924      10.6120338      -8.4251728
H       3.35878348      9.94063091      -8.1979198
H       3.57082820      11.2300968      -9.0166101