69
 Ord_Energy   -252.2558912
O       13.0333441      12.2887468      -13.920016
H       13.9113658      12.6345954      -14.116210
H       12.8309494      11.6605146      -14.627377
O       14.5453435      6.74942606      -13.301648
H       14.6247208      7.61714785      -13.730768
H       14.2145718      6.92324154      -12.412075
O       18.1680334      9.04903304      -12.946524
H       18.5649573      8.87485279      -12.084088
H       17.5159804      9.75039288      -12.801557
O       17.5299978      9.22658067      -15.695358
H       17.6105790      8.32825059      -16.038961
H       17.9292990      9.22462806      -14.815187
O       11.0174176      8.22015654      -14.928713
H       10.0831433      8.04772522      -15.009190
H       11.1938712      8.36596760      -13.981281
O       16.5771719      8.91969998      -9.0211065
H       16.1800854      8.04654699      -8.9131660
H       15.8932403      9.47624253      -9.4157968
O       13.6776123      7.58957180      -10.801392
H       14.1909138      7.04833957      -10.189090
H       14.0170911      8.49230776      -10.715443
O       16.1259511      10.9132703      -12.730144
H       16.1154961      11.7476420      -13.212913
H       15.6054938      10.2978454      -13.273055
O       14.9427567      7.34540366      -17.371939
H       15.7798054      6.96603405      -17.087986
H       14.2557660      6.93821662      -16.821845
O       15.5261741      6.24824094      -9.1638435
H       15.4757408      5.54885660      -8.5179417
H       16.2785473      6.03926647      -9.7456551
O       17.4704364      6.46828084      -16.277580
H       17.4160261      6.32826285      -15.317216
H       18.0564153      5.79784054      -16.619309
O       13.0506742      6.32269830      -15.639148
H       13.5267982      6.26385778      -14.799757
H       12.2913045      6.88914508      -15.459164
O       16.1633217      11.4212430      -16.717164
H       15.5011539      10.9850193      -17.265483
H       16.7842925      10.7266963      -16.455040
O       14.9213378      9.19474306      -14.463089
H       15.6771346      9.17473275      -15.063023
H       14.1682162      9.57245756      -14.933927
O       12.2133872      11.3825244      -11.512373
H       11.5945074      12.0089721      -11.146920
H       12.5090896      11.7462152      -12.366786
O       17.7005698      5.90182250      -10.767839
H       17.5873549      5.88401321      -11.726004
H       18.2476524      6.67631435      -10.585580
O       11.5653703      8.72027808      -12.325717
H       11.6969237      9.63668945      -12.053458
H       12.1590759      8.19611297      -11.774312
O       17.2473184      6.43363517      -13.532233
H       17.5566668      7.32686217      -13.324020
H       16.2825310      6.43758674      -13.426895
O       18.9214121      8.45551532      -10.307170
H       18.1107403      8.69664757      -9.8229097
H       19.6566455      8.69472328      -9.7494603
O       14.2192376      9.82405922      -18.113095
H       14.5066998      8.91898459      -17.889911
H       14.0436082      9.83262053      -19.049866
O       14.5954911      10.2380539      -10.537964
H       13.7571110      10.6817193      -10.716942
H       15.1970323      10.5250002      -11.240510
O       15.7304899      13.0156285      -14.558796
H       16.0824606      13.8829493      -14.739258
H       15.8741235      12.4839358      -15.362434
O       12.7076527      10.2631376      -15.804908
H       12.0636077      9.56395009      -15.629159
H       13.0805866      10.1304561      -16.685995