36
 Ord_Energy   -117.4380260
O       5.79670048      -5.6563391      -24.093515
H       5.58138561      -6.5684676      -24.320911
H       5.49434805      -5.5357279      -23.181451
O       3.89767337      -1.7604683      -22.194229
H       3.23167849      -2.4610734      -22.230684
H       4.12177181      -1.5635111      -23.112428
O       3.91254187      -7.9047980      -21.649999
H       4.23687983      -7.0025172      -21.487840
H       3.95480299      -8.3645715      -20.815092
O       6.91954517      -3.0704486      -23.829271
H       6.81940746      -2.9900462      -22.872377
H       6.73982859      -3.9974904      -24.034824
O       1.38855338      -6.6696243      -22.628644
H       1.54984283      -6.7465143      -23.582140
H       2.06112838      -7.2177486      -22.213872
O       2.31674027      -6.7479133      -25.266946
H       2.64982224      -5.8563127      -25.430259
H       3.09622812      -7.2944917      -25.113733
O       4.71855927      -5.2792148      -21.517004
H       5.27541113      -4.5569057      -21.202606
H       3.89692736      -4.8739204      -21.836664
O       2.44918966      -4.1319160      -22.617013
H       1.90461719      -4.9273681      -22.528242
H       2.75134206      -4.1134614      -23.536514
O       4.65123463      -8.2294263      -24.328649
H       4.86818504      -9.1305999      -24.555179
H       4.38191891      -8.2312965      -23.395946
O       6.10008478      -2.8788697      -21.071001
H       6.44768667      -2.3717389      -20.342672
H       5.31490517      -2.4020004      -21.398529
O       3.63248730      -4.1963696      -25.168567
H       3.92727304      -3.2817270      -25.254079
H       4.41293907      -4.6999740      -24.895374
O       4.84822702      -1.6469299      -24.904270
H       5.65551853      -2.0893309      -24.585905
H       5.12824106      -0.9453961      -25.485899