21
 Ord_Energy   -57.4698372
O       30.1214695      2.92771268      -5.8403587
H       30.5077896      3.56553793      -5.2200799
H       30.2936077      3.27420306      -6.7134518
O       30.9553394      0.59224671      -4.6641750
H       30.2972107      -0.0968219      -4.7010650
H       30.5807934      1.36182916      -5.1259436
O       31.4519062      4.47827291      -3.9382221
H       31.2743530      5.22518349      -3.3735058
H       31.6560879      3.72443891      -3.3550715
O       32.0842667      2.21507096      -2.5768170
H       33.0374603      2.07210183      -2.6513180
H       31.6738911      1.54998398      -3.1445972
O       33.6476288      0.92516285      -5.6089372
H       32.7408409      0.69253361      -5.3742938
H       33.6394348      1.87661505      -5.7901930
O       33.8833580      3.73690152      -5.3305482
H       33.0881729      4.11867380      -4.9401302
H       34.3765297      3.37626195      -4.5839037
O       34.8014297      1.81440365      -3.2880895
H       35.6430550      1.43381870      -3.0529871
H       34.4948196      1.34078109      -4.0818905