57
 Ord_Energy   -203.0310970
O       0.79684716      4.29708576      1.98167217
H       0.49159801      3.53707600      1.49318516
H       0.01209961      4.70602036      2.38980865
O       2.35659385      10.5448065      2.61737394
H       3.29201245      10.3157425      2.56463790
H       1.90577400      10.0295687      1.93927515
O       4.71954298      5.24743652      4.51518726
H       3.85197306      4.82698393      4.57798338
H       4.67604399      5.82448339      3.74000907
O       1.42384946      11.0104666      5.17128515
H       0.57083821      10.5791616      5.28187847
H       1.70258510      10.8737717      4.25268984
O       -0.3887384      4.90926552      6.02658844
H       -0.2853750      5.78840351      6.43316412
H       -0.8408176      4.36554050      6.66610956
O       5.21494198      6.90421486      6.59876966
H       5.88336992      6.52410030      7.16236448
H       5.07607126      6.27636242      5.86780357
O       2.04104543      7.34031582      4.39371395
H       2.24002457      7.68790197      5.27131510
H       2.01871657      6.37616062      4.46813822
O       -1.0251964      9.51654243      5.45481062
H       -1.8980374      9.89864635      5.40799713
H       -0.8698301      9.06703281      4.60597706
O       5.13234997      9.78428650      2.68261528
H       5.86850119      10.2829008      2.33935976
H       5.26597786      9.71278191      3.64545512
O       1.97674191      4.53748560      4.53322983
H       1.20705962      4.53265238      5.11775064
H       1.65466142      4.34193850      3.64257693
O       3.38996148      10.7287483      6.93807697
H       3.40902042      11.4679432      7.53840446
H       2.67524862      10.9019794      6.29572439
O       -0.2870634      8.16893673      3.20889640
H       -0.0605466      8.49638462      2.33061099
H       0.55169320      7.90636158      3.62325215
O       2.67691922      8.02307796      7.05811596
H       3.52414894      7.56014061      7.02257395
H       2.88161039      8.96545410      7.12340784
O       0.84592789      8.91756821      0.76896906
H       0.59314990      9.18000221      -0.1116070
H       1.29523551      8.05669689      0.68846673
O       -1.1978654      5.51858044      3.34582806
H       -1.0578786      5.30144024      4.27602959
H       -1.0150547      6.46457243      3.26070714
O       -0.0501666      7.37226820      7.09208870
H       -0.4312208      8.12966251      6.63177776
H       0.88441330      7.58126688      7.22691727
O       2.10820699      6.52657890      0.73461086
H       1.68674624      5.73943329      1.09804535
H       2.90736961      6.67674875      1.25937414
O       4.11231136      7.18552542      2.55808735
H       4.57599163      8.02664661      2.46950173
H       3.39184117      7.34654617      3.18814158
O       5.39499807      9.49585056      5.35892010
H       4.77708340      10.0036631      5.90036154
H       5.43206692      8.61630630      5.75266933