57
 Ord_Energy   -202.7529910
O       1.33128321      -2.3408696      -6.1827807
H       0.73957568      -2.4160904      -5.4228758
H       0.88590240      -1.8143076      -6.8593401
O       -2.1933302      -5.1292457      -10.272743
H       -2.8090705      -5.3690342      -10.959804
H       -2.2309935      -5.8380923      -9.6050825
O       -0.9610129      -7.3789610      -4.8192343
H       -0.6670553      -7.8907389      -5.5821595
H       -1.8569383      -7.0963287      -5.0366010
O       -0.4075151      -2.9817636      -4.0596799
H       0.01170764      -3.8545398      -3.9274632
H       -0.5456457      -2.6075820      -3.1946554
O       0.48619628      -4.7972598      -7.3015236
H       0.92689502      -4.0167613      -6.9413628
H       1.02597320      -5.5690140      -7.0936470
O       0.60459739      -4.8757562      -10.062067
H       -0.3028456      -4.9940495      -10.361430
H       0.54421681      -4.8234272      -9.0944156
O       3.09091091      -6.0645928      -9.3859882
H       3.61936188      -5.2650027      -9.2728176
H       2.27076149      -5.7758474      -9.8089542
O       0.72236359      -5.3967285      -3.8396496
H       0.15652890      -6.1254639      -4.1358742
H       1.62240481      -5.6086697      -4.1080613
O       1.98595822      -2.4562509      -9.9001817
H       1.37164450      -1.8936240      -9.4162225
H       1.48674953      -3.2552537      -10.122467
O       -3.4256153      -6.3211717      -5.8622570
H       -2.9735553      -5.4621882      -5.9371509
H       -4.3012728      -6.1455431      -5.5290322
O       -2.2643458      -7.0496473      -8.3588562
H       -1.5141092      -7.5913767      -8.0848693
H       -2.7731742      -6.8833022      -7.5562295
O       -0.1211272      -8.5934515      -7.2779226
H       0.09279385      -9.5048894      -7.4600200
H       0.72374982      -8.1131258      -7.2311210
O       4.31204367      -3.5039265      -8.9837694
H       5.04907322      -3.1421361      -9.4685277
H       3.51272488      -3.0579102      -9.3175039
O       2.11890507      -7.0891876      -7.0563373
H       2.63815832      -6.8075895      -6.2935900
H       2.56745768      -6.7998457      -7.8669242
O       -1.9144848      -4.0785679      -6.1623206
H       -1.5722237      -3.6173582      -5.3872990
H       -1.1383620      -4.4646315      -6.6010537
O       3.37006903      -5.9202914      -4.8542709
H       4.12121916      -6.1293072      -4.3060312
H       3.57801676      -5.0850949      -5.3125720
O       3.78817701      -3.6326441      -6.2054982
H       3.01578069      -3.0550394      -6.1328878
H       4.05926132      -3.5977137      -7.1310205
O       0.01331039      -1.0899426      -8.3307066
H       -0.2771723      -0.1959151      -8.4905643
H       -0.7547143      -1.6660156      -8.4939336
O       -2.1035358      -2.7612433      -8.6451511
H       -2.1988880      -3.1493682      -7.7650542
H       -2.1653518      -3.4976441      -9.2652607