36
 Ord_Energy   -117.3626630
O       3.11896038      -3.4177446      -20.650219
H       2.15538120      -3.4540886      -20.627986
H       3.41376758      -4.3013291      -20.917461
O       0.36100078      -3.8554015      -21.125749
H       0.58571422      -4.7437591      -21.457496
H       -0.4255786      -3.9488289      -20.595500
O       5.87460232      -2.8120002      -20.141655
H       4.91244984      -2.8957393      -20.122991
H       6.07835674      -2.3110003      -20.939655
O       1.22238898      -6.1993670      -22.215005
H       1.25211990      -6.0565505      -23.168779
H       2.14390564      -6.2906990      -21.934738
O       3.63851500      -2.1622431      -23.069261
H       3.45179105      -2.5153741      -22.185186
H       4.53423691      -1.8070652      -23.035739
O       0.97334570      -2.8632478      -23.743076
H       1.82002902      -2.4161853      -23.614007
H       0.64777923      -3.0708940      -22.857524
O       6.85889721      -4.2854471      -23.878160
H       7.41182327      -4.7162809      -24.525512
H       5.93930960      -4.4964532      -24.112712
O       4.15423059      -4.6233081      -24.270452
H       3.33311653      -4.9511117      -24.656904
H       3.95337844      -3.7427520      -23.917228
O       6.59750223      -5.3410129      -21.119142
H       6.86954355      -5.0795621      -22.004598
H       6.45166445      -4.5103979      -20.641428
O       1.50138807      -5.2533474      -24.935716
H       0.96332371      -5.4172821      -25.705333
H       1.24120700      -4.3799791      -24.589611
O       3.96799111      -5.8726363      -21.722040
H       4.02603483      -5.5415740      -22.628183
H       4.87696838      -5.8716497      -21.388753
O       6.42000961      -1.7315251      -22.806432
H       6.68366671      -2.5823776      -23.191257
H       7.10952044      -1.1070631      -23.019136