84
 Ord_Energy   -313.1227967
O       -5.7895437      -1.4040762      -1.2940671
H       -6.1561611      -0.6624445      -0.7787969
H       -6.5245060      -1.8280885      -1.7289662
O       1.15803673      0.70481621      -0.4153921
H       1.56716394      1.29484732      0.23356327
H       0.42139068      0.26579998      0.03736185
O       -1.4090653      -3.1583820      0.18462818
H       -2.3756887      -3.1513856      0.25976128
H       -1.0405127      -3.6035771      0.95667331
O       -4.0977138      -2.8982107      0.46968648
H       -4.3070442      -2.6245231      1.37101156
H       -4.6930458      -2.4163930      -0.1153396
O       -4.3350159      2.87558422      -2.6255579
H       -3.4714780      3.30259868      -2.6649053
H       -4.1584806      1.92426489      -2.6182018
O       2.46476475      -1.6509908      -0.7906561
H       3.32687041      -1.5403106      -1.1835312
H       2.07723914      -0.7616553      -0.7106985
O       -6.6383971      0.69591599      0.17732495
H       -6.1241579      0.65990322      0.99488885
H       -6.5595441      1.60187485      -0.1461618
O       -6.2257939      3.34981942      -0.7548974
H       -5.5585404      3.21116923      -1.4515295
H       -6.9127507      3.88846091      -1.1394965
O       -1.9566892      3.71140843      0.23614606
H       -2.8109643      4.07680443      0.51934519
H       -1.8454446      3.87398599      -0.7082134
O       -1.7271699      2.37285866      4.01385397
H       -2.6440471      2.64255860      3.89372862
H       -1.1895456      2.95986430      3.46693969
O       -4.4674138      -2.0499767      3.16451171
H       -5.0466295      -2.5166216      3.76122656
H       -3.5578813      -2.2182010      3.47102607
O       -0.1273359      3.90615153      2.24046256
H       0.04796623      4.83655568      2.36166592
H       -0.7395394      3.83601583      1.48761589
O       2.10823820      -0.0409211      3.52628989
H       2.50180196      -0.0399279      4.39533092
H       1.14324496      -0.0488925      3.65646412
O       -3.6994303      0.19571429      -2.2411812
H       -2.9678118      -0.2512720      -2.6851998
H       -4.3832730      -0.4526897      -2.0304963
O       2.08316301      2.17030096      1.68751491
H       1.36140555      2.75368091      1.95395267
H       2.15297555      1.48298266      2.36191885
O       -4.5157912      2.96008630      3.57189078
H       -4.6765578      2.08560059      3.17602993
H       -5.1124962      3.04191564      4.31166086
O       -1.6710884      3.88698929      -2.5346055
H       -1.2548517      4.52961343      -3.1020257
H       -1.1485517      3.06628155      -2.6072064
O       -0.0896109      -4.0780554      2.49272147
H       0.67482454      -3.4999061      2.31598232
H       0.26164878      -4.9389409      2.70336295
O       1.97888758      -2.4243101      1.92625229
H       2.11186694      -1.6152826      2.43443450
H       2.18359877      -2.2111310      1.00796038
O       -4.7931554      0.58170931      2.28839403
H       -4.6713198      -0.3112489      2.63321264
H       -4.1329476      0.72868880      1.59212781
O       -0.9058363      -0.5134850      0.91849433
H       -1.6766642      0.02383013      0.68663580
H       -1.0831581      -1.4254225      0.65690696
O       -2.9925698      1.10292574      0.28637884
H       -3.2391683      0.84018670      -0.6105386
H       -2.6281466      1.99654006      0.25428606
O       -0.2757722      1.59957058      -2.6362964
H       -0.6417362      0.78328465      -2.9944585
H       0.28622935      1.34273043      -1.8925565
O       -1.9347413      -2.4807318      3.96419041
H       -1.4678611      -1.6335105      3.99151795
H       -1.3343026      -3.0980136      3.53022908
O       -4.3988146      4.43817455      1.14243115
H       -5.0859948      4.08237803      0.56486335
H       -4.5049315      4.01193228      2.00232027
O       -0.6006745      -0.0728219      3.61264281
H       -1.0345565      0.76592850      3.82717026
H       -0.7046678      -0.2257843      2.66046160
O       -1.4462432      -0.8596975      -3.5163199
H       -1.4059599      -1.1494028      -4.4239428
H       -0.9028375      -1.4833462      -3.0018485
O       0.05454559      -2.5477134      -2.0620104
H       -0.4738011      -2.8692826      -1.3162543
H       0.92278501      -2.3356313      -1.7025600