24
 Ord_Energy   -70.1030350
O       0.17184298      -0.3485605      1.31398344
H       0.31163296      -0.7144892      2.18271399
H       0.97008812      0.16508192      1.09287918
O       2.27043152      1.12823081      0.42522764
H       1.84017086      1.98440611      0.27605251
H       2.47549486      0.79314142      -0.4546106
O       -1.7587177      0.74632746      -2.3209719
H       -2.5698046      0.38170758      -2.6641650
H       -1.2171922      -0.0045591      -2.0149521
O       2.27031398      0.27697787      -2.3443281
H       2.95625234      0.15305352      -2.9959049
H       1.71825206      1.01130557      -2.6568546
O       0.43384591      2.27258420      -3.0701992
H       0.23472452      2.87276816      -3.7847609
H       -0.3920317      1.80684602      -2.8580405
O       0.71691585      3.31507564      -0.3188937
H       0.68223155      3.15704942      -1.2675266
H       -0.1085817      2.94252110      0.02595058
O       -0.0473356      -1.1289476      -1.3910168
H       -0.0088021      -1.0102294      -0.4318150
H       0.80847865      -0.8351947      -1.7275000
O       -1.5333766      1.79417109      0.40577477
H       -1.0675257      1.05588257      0.81952769
H       -1.7700685      1.48534834      -0.4758919