72
 Ord_Energy   -264.0064484
O       13.2134713      12.9634722      -13.042993
H       13.0234486      13.8956029      -12.970983
H       13.9218965      12.8720916      -13.702363
O       19.3158807      8.81205162      -13.159262
H       19.2610672      9.73769082      -12.898096
H       18.8879187      8.75289925      -14.025880
O       16.4236770      10.4788346      -11.725312
H       17.2707086      10.9295649      -11.812570
H       16.1524995      10.2542729      -12.630176
O       11.5360122      10.9970001      -14.372127
H       12.0147275      11.7343560      -13.977344
H       11.4174095      10.3624419      -13.653958
O       13.6002665      8.06708423      -14.114738
H       12.9187741      8.53221181      -13.613521
H       13.9331954      7.38220263      -13.520335
O       14.4220720      6.33948413      -12.101103
H       15.0570784      6.88350883      -11.610713
H       13.6033624      6.36125960      -11.592134
O       18.4632616      6.59415512      -11.905712
H       18.8276070      7.39397696      -12.327639
H       19.2032077      6.10208302      -11.560730
O       15.0997943      12.4839046      -14.979534
H       14.7014432      12.5467623      -15.857256
H       15.2642648      11.5438649      -14.801857
O       16.5017014      6.43735447      -16.429818
H       16.4856830      6.12015018      -15.508037
H       16.7635022      5.69533438      -16.968631
O       16.2787957      7.89817716      -10.706016
H       16.3960579      8.80090338      -11.035941
H       17.0641878      7.40634200      -10.975946
O       15.6922118      10.3222285      -17.920795
H       15.1007563      11.0842437      -17.905111
H       15.1908423      9.58423448      -17.551505
O       16.5357838      5.67575587      -13.829161
H       15.7414680      5.70755756      -13.280901
H       17.2601899      5.92520152      -13.242683
O       18.2425617      10.8261499      -17.296361
H       17.3219275      10.6698017      -17.580361
H       18.7542065      10.9834227      -18.084764
O       12.3070458      10.3663554      -16.954319
H       11.9779979      10.5041952      -16.052249
H       12.7843137      9.53079210      -16.970309
O       15.6776547      9.88520980      -14.270562
H       14.9491034      9.25184555      -14.246758
H       16.4245550      9.47122069      -14.721037
O       13.8770110      12.4546824      -17.508710
H       13.4674884      13.0612678      -18.118400
H       13.2327746      11.7395215      -17.344142
O       13.9293206      8.70812982      -9.3335333
H       14.8005331      8.39643745      -9.6141473
H       13.8172240      9.57750362      -9.7382085
O       17.8870593      8.70858054      -15.531946
H       17.4939959      7.93811133      -15.960437
H       18.1077541      9.36225007      -16.208379
O       17.9420216      12.4494516      -14.941479
H       18.1226797      11.9642559      -15.755371
H       16.9939275      12.6334889      -14.948992
O       18.8781036      11.5818797      -12.540204
H       18.5754277      11.9189990      -13.402484
H       19.5046494      12.2166657      -12.203611
O       13.7648084      10.9758963      -11.098272
H       13.5149776      11.7318788      -11.644405
H       14.7161065      10.8603652      -11.237492
O       11.8823283      9.21897709      -12.242884
H       11.7978081      8.44231014      -11.678246
H       12.5210142      9.80610313      -11.811817
O       12.1695998      6.99408362      -10.487978
H       11.5946244      6.55560525      -9.8669752
H       12.7552417      7.57627146      -9.9696168
O       14.2203083      8.14029245      -16.800636
H       14.9379341      7.49660679      -16.838353
H       13.8883472      8.07530953      -15.892552