66
 Ord_Energy   -238.1577888
O       -9.5037218      -1.2066070      0.52744360
H       -8.9089692      -0.9102105      1.22989948
H       -9.4414838      -0.5409900      -0.1683046
O       -2.2136063      0.47017622      5.07281519
H       -1.6219691      0.79192189      5.74777102
H       -1.6607177      0.01148995      4.41497360
O       -4.8702578      0.34594104      -1.5264229
H       -5.5312137      0.69123782      -0.9068599
H       -4.1052202      0.92871814      -1.4657093
O       -4.1939976      1.57706596      3.40331552
H       -3.4679189      1.39691614      4.01356702
H       -4.1814738      0.84382221      2.76577153
O       -4.6042528      2.95864168      0.97243799
H       -5.4398823      2.53260527      0.73632468
H       -4.4221268      2.69063363      1.88164416
O       -6.7849894      1.31561901      0.25775996
H       -7.5750136      1.29860280      -0.2973573
H       -6.9457272      0.69387568      0.98108028
O       -7.3833769      -0.5385336      2.25651839
H       -7.1458775      -0.2148632      3.13288946
H       -6.9335740      -1.3828670      2.11839653
O       -1.5028650      -3.5030714      2.53360640
H       -1.1743023      -4.3432435      2.84338849
H       -2.4220557      -3.4291131      2.84395789
O       -0.7678379      -0.8097672      3.16956030
H       -0.8016737      -0.3906758      2.29941781
H       -0.8982512      -1.7527712      3.01157511
O       -6.4459127      0.61971753      4.65184392
H       -6.9066706      1.25943491      5.18923108
H       -5.6984201      1.08341030      4.23694658
O       -7.2012110      -0.4957690      -2.9667399
H       -6.3315148      -0.1551566      -2.7274719
H       -7.1742135      -1.4444057      -2.7715429
O       -8.9837947      0.81005316      -1.4261567
H       -8.4035101      0.33125848      -2.0465423
H       -9.5852683      1.32784779      -1.9536950
O       -8.5859807      -3.7295071      0.16747106
H       -9.2901023      -4.3708313      0.20505759
H       -8.9978214      -2.8511477      0.25801475
O       -2.7848004      2.17389045      -0.8860207
H       -2.4632977      2.91589231      -1.3912165
H       -3.3910421      2.53291344      -0.2126979
O       -4.0684389      -3.0176365      3.30547939
H       -4.8956631      -3.1837182      2.83473205
H       -4.2615102      -2.5388005      4.12657510
O       -4.4477693      -1.3156492      5.39127769
H       -3.6722777      -0.7396668      5.39482594
H       -5.2088498      -0.7350071      5.27435576
O       -1.9442184      -2.5723181      -0.1477711
H       -1.6284297      -1.6634880      -0.0578297
H       -1.7265814      -3.0020154      0.68848258
O       -4.6182554      -2.1854991      -0.5289073
H       -3.6819883      -2.4359390      -0.4944687
H       -4.6936967      -1.3482280      -1.0112477
O       -3.9740132      -0.6278803      1.79384436
H       -3.9121370      -1.3781622      2.39950187
H       -4.2738664      -0.9967016      0.95593683
O       -6.8871401      -3.1107229      -2.0739191
H       -6.0383477      -2.9871717      -1.6332465
H       -7.4995057      -3.3984087      -1.3860149
O       -6.2550818      -3.0439045      1.56611868
H       -5.6928932      -2.8127964      0.81175043
H       -7.0611943      -3.4228413      1.19319607
O       -1.5402545      0.13177086      0.63987838
H       -1.7862158      0.86952993      0.07046692
H       -2.3550862      -0.1140742      1.10463480