27
 Ord_Energy   -80.8414764
O       34.1306267      -18.553260      12.5366173
H       34.4547997      -19.303680      12.0465775
H       33.7253304      -17.947780      11.8881969
O       30.3416939      -15.817525      11.4558191
H       29.9825058      -16.589717      11.9285440
H       29.7727165      -15.662964      10.7063169
O       31.6210823      -14.164073      13.3081493
H       31.1344891      -14.706318      12.6673298
H       31.0873928      -13.390417      13.4731684
O       29.4808407      -17.976951      12.8199434
H       28.7610588      -18.477174      13.1929588
H       30.2720013      -18.215913      13.3352900
O       34.2494583      -14.572835      12.2122641
H       33.4206314      -14.283030      12.6146765
H       34.6945496      -15.100262      12.8875160
O       35.1907234      -16.511680      14.1249456
H       36.0241623      -16.749929      14.5233011
H       34.8980560      -17.280359      13.6092043
O       33.0469666      -16.709322      10.8904819
H       32.1139717      -16.490722      10.9838514
H       33.5304527      -15.925081      11.1920977
O       31.7601395      -18.468608      14.1904697
H       32.5411873      -18.654182      13.6584663
H       31.9699402      -17.661344      14.6835938
O       32.5913048      -16.041189      15.2652683
H       32.2273788      -15.361640      14.6846437
H       33.5207901      -16.122722      15.0175762