90
 Ord_Energy   -338.0158602
O       -3.5364809      1.27688718      -0.2300278
H       -3.5389311      0.38058974      0.13837073
H       -3.5711092      1.88677394      0.52098551
O       -0.7949362      1.76642359      -0.5454910
H       -0.3881460      1.22498684      0.14497042
H       -1.7499648      1.68092143      -0.4359523
O       -3.1727253      -1.2954214      0.69601308
H       -2.3065634      -1.2488284      0.25686764
H       -3.6003077      -2.0574719      0.28184215
O       -3.2909106      2.86202517      2.00816475
H       -2.4123414      2.85761850      2.41696974
H       -3.8829520      3.21831309      2.66663548
O       -0.8688100      -1.5666257      -0.7171799
H       -0.8250708      -2.5224249      -0.5741703
H       0.02522683      -1.2363948      -0.8619051
O       0.23729310      0.58530831      1.70626856
H       -0.0895535      1.34945114      2.19985971
H       -0.2425302      -0.1882063      2.02930743
O       -3.6749405      -3.4870375      -0.9313611
H       -2.8718811      -3.9661848      -0.6869857
H       -3.4551009      -3.0348228      -1.7555129
O       -0.7110478      2.83670423      3.10904022
H       -0.1108874      3.51513882      2.77195493
H       -0.3328451      2.51094454      3.93776517
O       -1.2483372      -1.5547814      2.71014055
H       -0.7360203      -2.3151975      2.39971956
H       -2.0600933      -1.5141901      2.18985148
O       -0.8293448      1.46459669      -3.2807650
H       -0.7064979      1.51183691      -2.3198445
H       -1.7712520      1.30745811      -3.4051724
O       -3.5979534      0.84855989      -2.9734794
H       -3.6591217      1.03866882      -2.0225270
H       -4.4104740      1.16028096      -3.3647778
O       1.15526330      3.70296593      -0.5387547
H       0.38599594      3.11293153      -0.5173920
H       1.23526284      4.08730715      0.34172959
O       -2.4692663      -1.8011620      -2.9766958
H       -2.9416136      -0.9717652      -3.1055382
H       -1.8916688      -1.6524751      -2.2113895
O       1.68876194      -0.7045245      -1.3178925
H       1.55628939      -0.6579564      -2.2741502
H       2.13943303      0.10954171      -1.0654881
O       1.33497156      4.54633460      2.15765136
H       1.56714764      5.42732560      2.43963136
H       1.92646079      3.93290537      2.63145377
O       1.13537896      3.52252712      -3.3778523
H       0.36164741      2.95288452      -3.4821423
H       1.14189366      3.79843499      -2.4518028
O       -1.0087206      -4.3491798      -0.2784010
H       -0.5771720      -4.3170196      0.58616703
H       -0.3405142      -4.6160756      -0.9236134
O       0.68252875      1.72298696      5.27215830
H       0.59697601      0.75982063      5.15172861
H       0.65212269      1.88219680      6.21174783
O       3.06918652      1.69674894      -0.9151634
H       2.46120895      2.43567096      -0.7681006
H       3.30640272      1.71760568      -1.8499208
O       0.49853736      -3.6114565      1.95362790
H       1.13629253      -3.3926518      1.25770345
H       0.98915918      -3.5798178      2.78373847
O       0.37775744      -0.9250244      4.89164912
H       1.04078522      -1.6134690      4.76236854
H       -0.3289476      -1.1288113      4.26412355
O       3.01263506      0.61731956      1.66122044
H       2.04569170      0.54268880      1.68419870
H       3.23824311      1.00823570      0.80728802
O       1.24143659      -0.2322260      -4.0192868
H       0.46347610      0.32587640      -3.8642628
H       1.99403850      0.36656083      -4.0952438
O       2.74254950      2.69441235      3.52541862
H       2.15925668      2.32554437      4.19990083
H       2.99034299      1.95910358      2.94839639
O       2.31192276      -3.0998727      -0.1286202
H       2.04262075      -3.7302513      -0.8070336
H       2.18934765      -2.2249081      -0.5264742
O       0.03746967      -2.7968902      -3.8714998
H       0.50891523      -1.9819411      -4.0846196
H       -0.8845083      -2.5419609      -3.7362400
O       1.06241845      -4.6456663      -2.1697616
H       0.71855795      -3.9953908      -2.8089071
H       1.34281260      -5.4032645      -2.6763273
O       3.21570823      1.82361960      -3.7670165
H       3.87733106      2.16769431      -4.3612077
H       2.51382447      2.49732572      -3.7047888
O       2.15555021      -3.0405504      4.18460227
H       2.76170669      -2.6728389      3.51537671
H       2.67700485      -3.6078538      4.74598691
O       3.65479966      -2.0639970      2.16388529
H       3.54369348      -1.1138341      2.02078921
H       3.39092465      -2.4923783      1.34031916