66
 Ord_Energy   -238.2047880
O       -1.9233846      -0.7082665      1.33533692
H       -1.5586018      -0.1591612      0.64653772
H       -1.4976393      -1.5813175      1.25454283
O       -3.7205634      -4.3683953      4.04484510
H       -3.0501205      -3.7382288      4.34319067
H       -4.5959444      -3.9868581      4.17810726
O       -2.8415560      -0.1251495      6.96506834
H       -2.5133571      -0.0882140      6.05817652
H       -2.7185385      -1.0364558      7.26160336
O       -4.7689037      -7.7363104      3.82932115
H       -5.5514030      -7.2451434      4.10408735
H       -4.1004610      -7.5345778      4.49922705
O       -1.0191696      -6.6840467      3.38244629
H       -1.6236583      -6.9677705      2.68791652
H       -1.5256990      -6.7478480      4.20493555
O       -2.3627924      -0.3575645      4.09304142
H       -2.1173915      -0.3635397      3.15965247
H       -3.3093073      -0.1423715      4.11300230
O       -1.6191105      -2.8505854      4.94254971
H       -1.7844129      -1.9626579      4.59178972
H       -0.8893383      -3.2602415      4.46364594
O       -5.5344305      0.25618723      7.01071548
H       -5.8017792      0.97883755      7.57163620
H       -4.5611167      0.21172596      7.05357265
O       -0.9482960      -3.2147834      1.19366515
H       -1.7268059      -3.7859275      1.13548434
H       -0.4133855      -3.5712885      1.91246462
O       -3.3460624      -4.6746134      1.33573174
H       -3.4696471      -4.5641856      2.29175591
H       -3.3286237      -5.6279511      1.19723821
O       -5.0330429      0.22607616      4.19025660
H       -5.6576294      -0.2893033      3.66736722
H       -5.3796258      0.27373561      5.08866739
O       -3.2683918      -5.6637725      8.13604069
H       -3.1668634      -6.1153779      8.96955967
H       -4.2255330      -5.6074538      7.96013498
O       -5.5762109      -2.5433929      6.91515684
H       -4.6278247      -2.6833014      7.05476570
H       -5.7272396      -1.5976556      7.03044081
O       -4.4462180      -2.0890858      1.07389367
H       -4.1428966      -3.0051612      1.02515221
H       -3.6537401      -1.5434813      1.13726521
O       -2.8457474      -2.9563002      7.38272619
H       -2.8625543      -3.8523843      7.73829365
H       -2.3270120      -2.9883465      6.56392002
O       -5.8741097      -5.3148622      7.48247480
H       -6.2332410      -5.6986827      6.67420530
H       -5.9517316      -4.3561301      7.38738537
O       0.29064316      -4.3191757      3.48652959
H       -0.1435250      -5.1899175      3.43010402
H       1.21511614      -4.4834189      3.65150547
O       -6.3325462      -3.4701311      4.43826914
H       -6.5084424      -2.7796294      3.78736615
H       -6.1324739      -3.0505366      5.28823423
O       -6.9076490      -6.1122436      4.89291954
H       -7.8398695      -6.2908725      4.79117012
H       -6.7746601      -5.1823124      4.64272928
O       -2.8419618      -6.5651106      5.48031616
H       -2.8870935      -6.3427333      6.41571188
H       -3.1943087      -5.8016080      4.99378920
O       -6.6109380      -1.4727568      2.53384352
H       -7.3098554      -1.1823852      1.95468485
H       -5.8463225      -1.6888415      1.96744990
O       -3.1944351      -7.4707388      1.60831416
H       -3.8143210      -7.5934877      2.34919071
H       -3.2278070      -8.2712030      1.09148908