75
 Ord_Energy   -277.0120540
O       12.6666946      11.1881781      -16.105918
H       11.9936438      10.8199482      -15.510339
H       12.9788923      12.0202837      -15.733258
O       15.4684925      7.75424814      -13.257705
H       15.2312574      8.48728275      -13.847567
H       15.9806385      8.12876797      -12.528110
O       16.0562363      11.6131763      -10.875867
H       15.3033342      11.6426010      -11.485326
H       16.7796230      12.0715981      -11.320477
O       16.6558342      13.0001936      -14.856315
H       16.8182755      12.2714357      -15.472639
H       15.7172823      13.2058764      -14.913197
O       12.9386768      7.49621820      -16.963817
H       12.8458614      8.26371956      -17.540063
H       13.8273878      7.15490675      -17.123535
O       12.1811113      9.86019039      -8.9620618
H       11.6641407      10.1407862      -8.2121229
H       13.0939140      10.1622763      -8.8044633
O       12.8871927      7.35099220      -12.395886
H       12.3538923      7.17265844      -13.180031
H       13.8095465      7.39694118      -12.689029
O       14.0211248      11.5046892      -12.714106
H       13.2771654      11.0177126      -12.334006
H       14.4080181      10.9378023      -13.398955
O       17.0911255      6.86440611      -15.363065
H       16.5607414      7.03108311      -14.572431
H       17.7943230      7.52494717      -15.363431
O       13.2812090      7.27295923      -9.6083383
H       13.0977354      7.15125465      -10.549547
H       12.7807627      8.05163765      -9.3357315
O       19.0114174      8.97064114      -15.367426
H       19.9279823      8.87349033      -15.611060
H       18.9970722      9.31327820      -14.455116
O       15.5815287      6.71162701      -17.586862
H       16.1331711      6.73295975      -16.784637
H       15.8353291      5.93123055      -18.072084
O       18.8451366      9.97088337      -12.877682
H       18.6545792      10.9103336      -12.769590
H       18.2773647      9.50716686      -12.248392
O       17.0112209      10.6818094      -16.360145
H       16.6252842      10.3096371      -17.168170
H       17.7516518      10.1194315      -16.100931
O       14.8462839      9.91907501      -14.808477
H       14.0745831      10.1652441      -15.331579
H       15.6281471      10.1665649      -15.320589
O       10.9692383      9.95476818      -14.378672
H       11.1659966      10.0571098      -13.438805
H       11.0051403      9.00472546      -14.547911
O       15.8225508      7.82106018      -8.8345813
H       16.1223965      7.18867922      -8.1875858
H       14.9315977      7.54046297      -9.1115179
O       11.3969946      7.15681314      -14.780149
H       10.7303638      6.51367092      -15.006903
H       11.9727793      7.24769163      -15.560934
O       18.0399818      12.6976109      -12.551233
H       17.5463600      12.8385906      -13.379289
H       18.6455154      13.4290810      -12.465193
O       16.8647614      8.94905949      -11.170826
H       16.5664063      9.86261845      -11.055698
H       16.6260948      8.47869968      -10.362676
O       14.7937908      10.5001822      -8.6123752
H       15.2388353      9.64506054      -8.5620498
H       15.2599468      11.0065994      -9.2905845
O       15.7399635      9.43227196      -18.426673
H       14.8120871      9.66027737      -18.559633
H       15.7473927      8.48988247      -18.214397
O       12.0002060      9.91686153      -11.750255
H       11.9386530      9.97058296      -10.788985
H       12.3194780      9.02610397      -11.959991
O       13.7724571      13.3898258      -14.677972
H       13.8062801      12.8281727      -13.883963
H       13.3803015      14.2182636      -14.412913
O       12.9217052      9.91612720      -18.481761
H       12.3314266      10.2690220      -19.142059
H       12.7967472      10.4508781      -17.678047