84
 Ord_Energy   -312.7530738
O       1.82335384      1.96936036      -3.6595350
H       1.47560725      1.07090671      -3.5894990
H       1.08792996      2.58019557      -3.5313194
O       -0.1353619      3.97801251      -2.8795548
H       -0.6943215      4.46465332      -3.4810623
H       -0.7254476      3.49132460      -2.2818798
O       3.24045724      2.66305922      -1.4517444
H       2.87587713      2.38969705      -2.3084236
H       2.98685855      3.58788351      -1.3196858
O       1.02594558      -0.6843541      -3.0507244
H       0.93631914      -1.5681499      -3.4267712
H       1.63341703      -0.7810988      -2.3032117
O       1.16120959      5.32833075      1.67296040
H       1.57438195      6.07643225      2.09899770
H       1.56911083      4.53197987      2.05560412
O       -1.5865417      -0.1227853      -2.2327453
H       -0.6741328      -0.2682512      -2.5232202
H       -1.6474651      0.79966757      -1.9523847
O       -1.4970254      2.42980089      -1.0569396
H       -2.1619073      2.63217512      -0.3884173
H       -0.6511580      2.32182515      -0.5931261
O       1.94289104      5.05881616      -1.1252065
H       1.58259178      5.18296045      -0.2393455
H       1.20345566      4.81848061      -1.6971849
O       0.59595758      -3.4394845      -3.6436136
H       0.61855494      -3.9789975      -4.4292717
H       -0.3415678      -3.3338325      -3.4009276
O       0.96602547      2.11160417      0.11971072
H       1.69741828      2.26429096      -0.4916655
H       1.25642224      2.43959187      0.98137559
O       -1.9127282      -2.9643012      -2.7196754
H       -2.0164921      -2.0086099      -2.6335715
H       -1.8657284      -3.3177634      -1.8211729
O       4.66102938      0.68503363      -0.2538359
H       5.57560875      0.71252736      -0.5235135
H       4.21971528      1.44133111      -0.6796091
O       -3.2142723      2.99914286      1.10557035
H       -4.0521082      3.44811116      1.18054801
H       -2.5714934      3.50843349      1.63278762
O       2.62939788      -1.1764552      -0.8309078
H       3.41049366      -0.6390137      -0.6591255
H       1.97453358      -0.9495721      -0.1527694
O       -1.3116960      4.18595582      2.60187914
H       -0.5488998      4.66664500      2.25946070
H       -0.9659232      3.48978914      3.17509873
O       -1.8975842      -1.1116740      0.31336569
H       -1.8564287      -0.7442259      -0.5805796
H       -1.7549176      -2.0639529      0.23398243
O       0.71056781      -0.4487734      0.97778669
H       0.77473888      0.47509311      0.69772833
H       -0.1887420      -0.7427440      0.79465077
O       1.93142286      2.88320168      2.59840023
H       1.19206922      2.49060724      3.08411444
H       2.65915461      2.24320824      2.60190875
O       1.47472925      -3.7031734      -0.9171383
H       1.27238619      -3.8031716      -1.8554569
H       1.99195210      -2.8866690      -0.8606344
O       -2.4226805      0.56908518      2.39115758
H       -2.8449303      1.35198900      2.02050076
H       -2.3035517      -0.0420111      1.64728053
O       3.76916604      0.88194427      2.45752403
H       3.39616780      0.02656420      2.70561031
H       4.14875300      0.77403417      1.57713183
O       -0.3053008      1.77023440      3.77910099
H       0.04654015      1.09411816      4.37093536
H       -0.9985998      1.33482714      3.26217996
O       -1.2053346      -3.7432521      -0.0638710
H       -0.2739107      -3.7359604      -0.3288464
H       -1.2250098      -4.0069031      0.86516670
O       2.19508808      -1.4185992      3.03485654
H       2.23412058      -2.3531423      2.79131721
H       1.62641629      -1.0124068      2.36065559
O       -1.0027971      -4.1353638      2.69821980
H       -1.3742949      -4.8109800      3.25992051
H       -1.2129259      -3.2816824      3.11534872
O       0.71749721      -0.4893910      5.12592308
H       1.14066303      -0.6287666      5.96891008
H       1.31564971      -0.8474079      4.44662003
O       -1.5355865      -1.7363632      3.87853884
H       -0.8187851      -1.3596789      4.40333539
H       -1.9915630      -0.9874227      3.47756979
O       1.79618548      -3.9575821      2.00771126
H       1.80158945      -4.0376788      1.04756269
H       0.87867765      -4.0907423      2.27828655