78
 Ord_Energy   -288.4517558
O       3.14456207      -1.6245794      3.12724915
H       3.76649208      -1.9917282      3.75063214
H       3.64389492      -1.4429745      2.31337188
O       2.61930635      -0.4589062      -2.8783877
H       3.51924883      -0.7766387      -3.0303765
H       2.61252370      0.49705149      -3.0037498
O       -0.9733019      2.71143845      0.01848713
H       -0.1333352      2.44504696      0.43131426
H       -1.2090053      3.55934494      0.38512050
O       3.56884477      -1.9840970      -5.7534516
H       3.21206702      -1.1471829      -6.0781212
H       2.82867344      -2.4168917      -5.3099863
O       0.69441729      -2.8743666      2.25090986
H       0.03355367      -2.2425627      2.56429609
H       1.54493843      -2.5448602      2.56396513
O       1.38432963      1.75714516      1.03291244
H       1.38458797      1.48309886      1.96107888
H       1.45426151      0.94026237      0.51288753
O       -2.0235545      0.10940098      0.60478723
H       -1.9085988      -0.3500731      -0.2368042
H       -1.8044435      1.03252866      0.43340271
O       -1.2716635      -1.1125210      -1.8386896
H       -0.7793961      -1.8052362      -1.3726656
H       -1.4049431      -1.4282398      -2.7396425
O       0.26466496      -2.9261048      -0.4280844
H       0.87891267      -3.5173027      -0.8798678
H       0.37237463      -3.0508139      0.52799130
O       2.36089019      0.50091853      -6.5021279
H       1.52174854      0.54458527      -6.0116866
H       2.16032020      0.75130014      -7.4008128
O       1.30370332      0.56114415      3.47119833
H       0.44784586      0.11639193      3.40876111
H       1.96856263      -0.1386890      3.44592258
O       3.39206022      3.03633327      -0.3088932
H       2.71439224      2.62865713      0.25640985
H       3.62379720      3.86969542      0.09359282
O       4.26257590      -1.0854297      0.68725592
H       3.36223766      -0.9306146      0.36290098
H       4.80566673      -0.3900586      0.28867833
O       2.30282171      2.33948912      -2.8095038
H       2.66748488      2.64720826      -1.9704459
H       1.37069319      2.12499278      -2.6662196
O       4.43178919      -3.1317752      -1.2880479
H       4.79165581      -2.6621259      -2.0535946
H       4.47765663      -2.5175242      -0.5458865
O       5.41522541      1.00806960      -0.6697614
H       5.71920679      1.03078978      -1.5843987
H       4.79423663      1.73912069      -0.5693771
O       6.20771862      1.00887366      -3.4490404
H       5.50026153      1.39981494      -3.9927091
H       7.03100921      1.36833763      -3.7685874
O       5.11113895      -1.5736735      -3.5005193
H       5.62875804      -0.7607795      -3.5479068
H       4.72783441      -1.7466794      -4.3743003
O       2.15648489      -4.4206666      -1.8861538
H       2.99621930      -3.9870937      -1.6449681
H       2.31500313      -5.3601631      -1.8592934
O       1.74748269      -0.5696944      -0.3152571
H       2.04705841      -0.5129740      -1.2345851
H       1.20259645      -1.3622899      -0.2488648
O       -1.1410988      -1.9786878      -4.5377352
H       -1.5996803      -2.6219300      -5.0714026
H       -0.2408980      -2.3205158      -4.3905668
O       4.12283907      2.00386810      -4.8544627
H       3.60576967      1.50109088      -5.4952662
H       3.48375159      2.31563726      -4.1979117
O       -0.0088953      0.57358385      -5.1358120
H       -0.4832125      -0.2625605      -5.0516136
H       -0.1609078      1.03968489      -4.3052789
O       1.42028336      -2.6919894      -3.9813231
H       1.65159413      -3.3738668      -3.3385983
H       1.75848257      -1.8536055      -3.6281799
O       -0.3186348      1.48535639      -2.4321945
H       -0.5508387      0.57357310      -2.2053972
H       -0.6481507      2.02841246      -1.7061920
O       -1.1354956      -0.8398047      2.99281724
H       -1.4698560      -0.5180607      2.13728091
H       -1.8967801      -0.9551723      3.55561850