60
 Ord_Energy   -214.6865390
O       2.85188460      -2.3028879      13.0185995
H       3.50921559      -2.8969447      13.3697720
H       3.33135080      -1.5417830      12.6414118
O       3.97754622      -0.0719089      12.0206928
H       4.08751011      0.21285783      11.1057615
H       3.40694571      0.59191722      12.4334383
O       -3.3219807      -1.6331093      10.1722946
H       -3.9641172      -2.2083828      9.76383018
H       -2.6515657      -1.4367579      9.49369240
O       -3.6675267      1.11060977      10.7661686
H       -3.6757111      0.17209469      10.5438490
H       -3.1577444      1.17381525      11.5865498
O       -1.8148056      1.21918344      12.8369513
H       -1.8501498      0.60535294      13.5786066
H       -1.1213728      0.87872654      12.2497787
O       -2.3731253      2.94253778      9.27413845
H       -2.9110887      2.28941822      9.75837612
H       -2.9782836      3.48416233      8.77497482
O       1.95722532      1.57785332      12.9999733
H       1.90699935      2.52387333      12.8260326
H       1.38512301      1.15663469      12.3383799
O       -1.1122582      3.71621585      11.7666922
H       -1.3964253      2.95829844      12.2961254
H       -1.5245564      3.60052204      10.9034452
O       1.53474200      4.18610811      12.0260715
H       0.56884384      4.07847261      11.9484968
H       1.68918264      5.07739162      12.3260307
O       2.12953758      -0.2155117      7.88292456
H       1.36515212      0.37000546      7.93302727
H       1.78965056      -1.1098200      8.01161957
O       -1.4107958      -1.0329361      8.33643818
H       -1.0217012      -0.1513813      8.32925797
H       -0.6726480      -1.6523501      8.27301598
O       -1.5415452      -0.8917048      14.6638441
H       -1.8261531      -1.0914574      15.5512562
H       -0.5710904      -0.8047964      14.6931839
O       0.78567719      -2.4314580      11.1480188
H       -0.0624232      -2.5784721      11.5973787
H       1.49585056      -2.4821069      11.7993355
O       1.14924395      -0.5935808      14.5971565
H       1.43119788      0.25301141      14.2247076
H       1.70986664      -1.2578415      14.1802845
O       0.24822582      0.34282222      11.2081280
H       0.16492765      0.70471185      10.3189650
H       0.43173048      -0.6014057      11.1337996
O       -0.0697468      1.51516140      8.63985729
H       -0.8761577      2.03413033      8.76118279
H       0.67344177      2.09469724      8.88119888
O       2.05320001      2.94523215      9.51069355
H       1.97488713      3.40667033      10.3543377
H       2.83002114      2.37608457      9.56757259
O       0.88874614      -2.6857338      8.46189308
H       0.88794172      -2.6609919      9.43573475
H       1.04517603      -3.5904398      8.20605278
O       4.09442139      0.92521864      9.37216759
H       3.44311190      0.45999920      8.81772232
H       4.86565542      1.06316638      8.82781029
O       -1.6512322      -2.5405094      12.3155174
H       -2.2963562      -2.2056403      11.6800747
H       -1.7276765      -2.0052239      13.1144514