27
 Ord_Energy   -82.3067322
O       32.0601959      -19.189779      12.3639288
H       32.0824127      -19.064731      13.3301849
H       32.0177422      -20.130022      12.2102814
O       32.6610756      -16.071489      15.7511072
H       31.7147522      -15.839595      15.7531891
H       33.0406570      -15.682225      16.5342789
O       33.7898293      -17.182924      11.4723520
H       34.6020164      -17.568096      11.1529274
H       33.2175522      -17.926097      11.7170801
O       31.9388580      -18.730072      15.0324154
H       30.9927711      -18.677202      15.2204657
H       32.3104401      -17.884132      15.3136234
O       29.1169281      -18.289527      15.1615381
H       28.3171501      -18.778139      15.3337641
H       29.1645565      -18.156011      14.1971598
O       32.7327309      -15.147097      13.0381479
H       33.1756325      -15.789418      12.4657059
H       32.8751411      -15.440765      13.9459076
O       29.5237026      -17.795623      12.5186625
H       30.3611145      -18.221571      12.3007059
H       29.6790314      -16.842502      12.4696608
O       30.0599079      -15.017121      12.7087517
H       29.8081646      -14.256599      12.1926632
H       31.0332642      -15.010379      12.7638102
O       29.9857273      -15.600174      15.5085068
H       29.5805683      -16.476913      15.5262260
H       29.8940678      -15.290057      14.5979357