90
 Ord_Energy   -338.2063728
O       3.94895048      -3.3747601      2.56460005
H       3.14031146      -2.8926317      2.81354993
H       4.32241687      -3.7213840      3.37027396
O       2.58019061      0.19733771      -2.7124553
H       2.16421755      0.97826697      -2.3204582
H       3.53317210      0.38033028      -2.7140871
O       -1.4307928      0.89313102      1.52104333
H       -1.8431781      1.32341640      2.26561130
H       -0.4837238      0.81758805      1.72814218
O       6.54349110      -1.4513138      -3.3623316
H       6.27290007      -2.1010437      -2.7007308
H       6.15313025      -1.7465259      -4.1943483
O       3.43992492      -4.7598870      0.07884515
H       4.09191018      -4.3476219      -0.5019729
H       3.58756248      -4.3825986      0.95404808
O       0.31018516      -2.9830803      0.78757342
H       0.38161393      -3.8031403      0.28766088
H       -0.6009955      -2.6583576      0.73504781
O       1.28235827      0.65404408      1.86241387
H       1.50537155      0.06769209      1.12197999
H       1.82191099      1.44222609      1.72878776
O       -2.0971780      -1.7342921      0.50375005
H       -1.9926975      -0.8696907      0.91847057
H       -1.9324813      -1.5971245      -0.4403920
O       -1.1984737      -1.2686895      -2.1071747
H       -0.5476834      -1.9408124      -2.3493587
H       -1.7650233      -1.1356149      -2.8775746
O       0.61704896      -3.2320449      -2.9188374
H       1.53819033      -3.0306932      -3.1394399
H       0.64686516      -3.9630383      -2.2901047
O       0.12376659      2.73338270      -5.5293870
H       -0.6039180      2.50776134      -4.9221002
H       -0.2679165      3.17660862      -6.2770174
O       1.65538058      -1.9975845      3.02565640
H       1.11444109      -2.4122392      2.33635411
H       1.57397420      -1.0485393      2.88374087
O       2.90619190      2.75487816      0.91509366
H       3.68630726      2.24267454      0.62955238
H       3.23406083      3.56791639      1.28928689
O       4.59667062      -1.4228618      0.64649992
H       4.55336617      -2.0402782      1.38630754
H       3.67867439      -1.2814761      0.36664799
O       1.54718150      2.45826180      -1.5470663
H       1.96898514      2.61730046      -0.6939447
H       0.64219134      2.15471347      -1.3860502
O       5.11499446      -3.1120382      -1.5247726
H       5.03279128      -2.4775788      -0.7974004
H       4.41304987      -2.9118324      -2.1603633
O       4.97105776      1.28087676      0.04842921
H       5.15918072      1.23486926      -0.8980678
H       4.98766615      0.36719752      0.36293789
O       4.81848336      2.61288940      -4.8607964
H       3.96011191      2.96935740      -4.5684378
H       5.33198529      3.35232430      -5.1747937
O       5.23006629      0.85986214      -2.7108560
H       5.78364687      0.09937703      -2.9445047
H       5.23977257      1.48689223      -3.4440564
O       3.18149891      -2.4243369      -3.4667822
H       2.98690942      -1.4993507      -3.2648670
H       3.73700229      -2.4301290      -4.2577978
O       1.99621268      -1.0165130      -0.1962908
H       1.39124543      -1.7580590      -0.0558637
H       2.00981112      -0.7607037      -1.1225829
O       -2.5725764      -0.7483968      -4.5059309
H       -1.8120509      -1.2008833      -4.9145427
H       -3.3599727      -1.1312229      -4.8828277
O       2.40040057      3.49272854      -4.0159921
H       1.62740099      3.34573528      -4.5746862
H       2.11872677      3.27878066      -3.1169303
O       -1.8182489      1.91762989      -3.8512994
H       -1.6180510      1.85842752      -2.9089445
H       -2.1594343      1.05244853      -4.1123209
O       4.94639698      -2.1858235      -5.6225122
H       4.66718646      -1.3023820      -5.9246008
H       5.13478640      -2.6996439      -6.4027637
O       -0.3229160      -1.9834676      -5.3424236
H       0.32293389      -1.2658801      -5.4122404
H       -0.0148229      -2.5598240      -4.6326971
O       -0.9397592      1.33464038      -1.2140938
H       -1.2172473      1.31047694      -0.2906989
H       -0.9387163      0.41550799      -1.5217509
O       4.02858703      0.25848337      -6.2748206
H       4.36270193      1.07301505      -5.8811729
H       3.07965189      0.24415706      -6.0909258
O       1.39932152      0.23842667      -5.2962231
H       1.76004612      0.28094995      -4.4008588
H       0.94999061      1.07848622      -5.4559973
O       0.94607657      -5.1572823      -0.8745474
H       1.86191613      -5.0634292      -0.5524725
H       0.73335342      -6.0855973      -0.8341504