18
 Ord_Energy   -45.5437164
O       25.2454643      2.78181338      24.2099838
H       25.9791088      2.88056993      24.8172321
H       24.7036610      3.57109046      24.3444424
O       23.5250473      4.98869991      24.9584656
H       23.2572937      5.68406296      24.3640079
H       22.7426300      4.42561102      25.1014977
O       24.6574287      1.99013710      28.0571880
H       24.8377762      2.91951394      27.8450890
H       24.5660248      1.95094156      29.0060005
O       21.4959297      3.25070667      25.3623524
H       22.0595531      2.46870995      25.5031586
H       20.6016922      2.92799807      25.3062115
O       23.3284874      1.27637196      25.6980858
H       23.9908066      1.58298302      25.0652199
H       23.7400913      1.38558626      26.5672417
O       25.1073399      4.62463760      27.2482567
H       25.4693890      5.45944071      27.5353966
H       24.5396748      4.82643414      26.4892197