90
 Ord_Energy   -338.7205198
O       -2.8143987      2.18216160      0.97174661
H       -2.8563656      1.21359023      1.00467756
H       -2.3344705      2.45523822      1.76354612
O       -0.4603922      2.23171323      -0.5089268
H       -0.0460691      1.55672596      0.04707251
H       -1.3429114      2.35532090      -0.1379078
O       -2.8406530      -0.5890769      0.73920104
H       -3.6636859      -0.8200966      0.29274798
H       -2.1401624      -0.6515484      0.06960273
O       -4.0940454      1.63543041      -1.5693644
H       -4.4616342      0.75947545      -1.3960704
H       -3.7932015      1.97682652      -0.7195365
O       -0.8652061      -0.9973846      -1.1339916
H       -0.8895043      -1.9637374      -1.1711108
H       0.05918059      -0.7208908      -1.1059693
O       0.41564653      0.66515369      1.59306766
H       0.03541488      -0.1759670      1.87401132
H       -0.0288263      1.35775248      2.10143435
O       -4.9895573      -1.0411917      -0.9830950
H       -4.5084605      -1.6912363      -1.5259483
H       -5.8888572      -1.3501053      -0.9156209
O       -0.8896045      2.67813116      3.05463336
H       -0.3100609      3.43539819      2.89709404
H       -0.5829665      2.26209445      3.87256455
O       -0.9839972      -1.6405338      2.47153851
H       -1.7664301      -1.3420352      1.98866211
H       -0.6824130      -2.4585358      2.05668236
O       -0.1910397      2.30807151      -3.2513619
H       -1.0791043      2.22367035      -3.6162612
H       -0.2851241      2.22886951      -2.2898614
O       -2.8605071      1.80188787      -3.9778922
H       -3.3183133      1.79260511      -3.1179829
H       -3.4497743      2.22105346      -4.5991161
O       1.55329547      4.07151328      -0.0998872
H       1.47583180      4.38202430      0.80951611
H       0.78249595      3.50465504      -0.2547989
O       -1.8795953      -0.8457989      -3.7282085
H       -1.5415128      -0.7706060      -2.8221215
H       -2.2432967      0.01763658      -3.9534012
O       1.84035030      -0.2509085      -1.2445137
H       1.86222330      -0.1042907      -2.1994930
H       2.33566521      0.48249017      -0.8604510
O       1.13793267      4.64494544      2.63357121
H       1.22929264      5.49060520      3.06478285
H       1.72355045      4.02303737      3.10393804
O       -3.4919109      -2.7546634      -2.4570488
H       -3.0359973      -2.1671756      -3.0760570
H       -2.7956462      -3.2764488      -2.0393640
O       1.85407708      4.24128564      -2.9212639
H       1.77821289      4.41255091      -1.9734743
H       1.07948130      3.71230215      -3.1566096
O       -1.1071836      -3.7986155      -1.2713713
H       -0.3327183      -3.9856833      -1.8193948
H       -0.8519779      -3.9997170      -0.3617786
O       0.41061765      1.36202736      5.20260120
H       0.63434341      0.45076596      4.93966585
H       0.23897047      1.33716705      6.14026004
O       3.38483667      2.00162827      -0.5459801
H       3.72642166      2.12575259      -1.4389452
H       2.81754770      2.76335379      -0.3579192
O       0.10909338      -3.9301897      1.25451359
H       0.47403818      -4.5711181      1.86043266
H       0.86232096      -3.5130854      0.80146947
O       0.94991180      -1.1623270      4.40081033
H       1.70123801      -1.4623952      3.87127031
H       0.16677262      -1.3939878      3.88283805
O       3.15761779      0.84943229      1.96219507
H       2.19684264      0.75250769      1.85856208
H       3.47363044      1.24887595      1.14210927
O       1.88731439      0.58425791      -3.9030793
H       2.67002734      1.14402758      -3.8382254
H       1.12254121      1.16638388      -3.7734525
O       2.55316133      2.75327593      3.92572155
H       1.91726722      2.27543689      4.47264596
H       2.92517841      2.10050020      3.31693545
O       2.14304306      -2.7934400      -0.1965540
H       2.02785277      -3.2981956      -1.0118045
H       2.11962740      -1.8664677      -0.4753870
O       0.67687579      -1.9091465      -4.2794001
H       1.19959405      -1.0974588      -4.3127587
H       -0.2445717      -1.6201291      -4.2506936
O       1.33262981      -3.9726574      -2.6698513
H       1.70294415      -4.6718505      -3.2019346
H       1.13748091      -3.2349435      -3.2767673
O       3.89934174      2.50119229      -3.3023135
H       3.22152584      3.19852099      -3.2313830
H       4.63790043      2.87923315      -3.7716874
O       2.93697677      -1.8807202      2.52700082
H       3.21086052      -0.9669228      2.36025012
H       2.84357227      -2.2803487      1.65747203