18
 Ord_Energy   -46.0908012
O       23.2882290      2.44411612      27.4812222
H       22.6769276      3.20027351      27.5180683
H       23.8134308      2.47879982      28.2766724
O       22.3894749      0.34188420      25.8526688
H       22.6790314      1.03089714      26.4703579
H       21.4840450      0.14823244      26.0849781
O       22.7057991      5.73383665      25.1534100
H       23.2884445      4.97822857      24.9605427
H       23.0854874      6.48121214      24.7003670
O       24.2572289      3.49764276      24.9269600
H       24.0741844      2.77909112      24.3055611
H       24.1113682      3.12156701      25.8020535
O       21.6665440      4.63330841      27.4308720
H       20.7888908      4.96159983      27.6051884
H       21.9773293      5.10275936      26.6374111
O       23.5767231      1.20120740      23.4813309
H       24.0600204      0.48321092      23.0795517
H       23.1270065      0.81803197      24.2516861