48
 Ord_Energy   -165.7725220
O       2.70057678      -3.1552817      9.20918179
H       3.34871745      -2.5325715      9.56678104
H       2.57439184      -3.8219907      9.89932919
O       4.81044483      -1.5747739      10.2322664
H       4.79901171      -1.9652384      11.1149435
H       5.50794697      -2.0393030      9.74615574
O       6.63629198      -3.0628006      8.69604969
H       6.82157516      -2.4300544      7.98944330
H       5.98193645      -3.6787362      8.33772373
O       2.48303366      -1.6826241      6.87246943
H       2.29998136      -2.2084574      7.66245604
H       3.13718104      -2.1788830      6.35935688
O       6.10562754      0.30042571      4.38101864
H       5.52152300      -0.2451462      3.84014821
H       5.53665018      0.96002126      4.79781723
O       4.25777864      1.89864469      5.94450521
H       4.24947166      2.82011032      6.19200373
H       4.30080700      1.38928890      6.77035809
O       6.70391893      -4.6734662      11.0146961
H       6.21759939      -5.4211301      10.6442432
H       6.93026495      -4.1137599      10.2598591
O       4.51283455      -4.6574893      7.69611025
H       4.53025103      -4.2812900      6.80682230
H       3.82414126      -4.1812892      8.18428898
O       4.29667759      0.09378165      8.04401207
H       3.60375834      -0.4597098      7.65287876
H       4.46272659      -0.2628257      8.92580891
O       4.92608595      -3.2516982      12.5046301
H       5.62545872      -3.7675039      12.0636806
H       5.17454433      -3.1774172      13.4221220
O       6.42612314      -1.1840282      6.66737413
H       5.77230978      -0.6967433      7.18692303
H       6.53686857      -0.6818561      5.84709549
O       2.39548731      0.10808857      4.69335127
H       2.91596365      0.83797991      5.05154324
H       2.18483567      -0.4594685      5.44723034
O       4.08635664      -1.4044412      3.18597317
H       3.80507588      -1.5036997      2.28053570
H       3.41619897      -0.8556342      3.63147879
O       4.58715296      -2.9566924      5.48356104
H       4.42825413      -2.6053979      4.59862900
H       5.28629255      -2.4067323      5.86653757
O       4.94489384      -6.5106506      9.70184994
H       4.80882120      -5.9754819      8.90255928
H       4.97055244      -7.4217190      9.41982555
O       2.99366808      -4.9919261      11.2286816
H       3.58723545      -5.6358513      10.8235464
H       3.55215287      -4.4382376      11.7892818