12
 Ord_Energy   -22.3836079
O       0.16768353      11.4692478      12.9632540
H       -0.3677104      12.2101908      13.2401342
H       -0.1306903      10.7190495      13.4956951
O       0.08473902      9.25993824      11.1507835
H       0.22655962      10.1624985      11.4683495
H       0.86433411      8.76145649      11.4324284
O       1.83950174      7.79665470      12.8690920
H       2.05164051      6.89544296      13.1038704
H       1.08833706      8.04113102      13.4270363
O       -0.7266026      8.82399178      13.7488422
H       -1.5748076      8.43294907      13.9410343
H       -0.6621016      8.87823772      12.7782764