54
 Ord_Energy   -190.2115630
O       3.80233836      7.39369154      1.68128347
H       4.18782425      8.21788216      1.97040057
H       4.53792667      6.83543444      1.38347900
O       0.48612282      1.76751935      -2.1355233
H       0.64448988      2.42391372      -2.8249704
H       0.28271937      2.26677752      -1.3342677
O       3.73362565      4.55014277      -0.9140766
H       2.95064569      4.95482635      -1.3043804
H       3.41172671      3.85832024      -0.3182439
O       1.21922231      7.17095375      0.41177729
H       2.12718010      7.29790163      0.71241450
H       1.26010573      6.72895813      -0.4464501
O       2.86313939      2.54126382      0.80820513
H       3.37971783      1.84538591      0.38076025
H       3.38239050      2.87241197      1.55368316
O       -0.0544071      5.44631004      2.08379030
H       -0.8312044      5.82934189      2.48295450
H       0.33165151      6.12985277      1.50633538
O       5.64257765      5.53611422      0.76484478
H       4.96410704      5.27542639      0.12009223
H       6.44568443      5.07449102      0.49807495
O       1.24018884      5.35983849      -1.7713091
H       0.85685849      4.72073412      -1.1506962
H       1.24055433      4.93249321      -2.6371846
O       1.39373112      3.72329211      -4.0501856
H       2.23285937      3.22959709      -4.0564003
H       1.12837899      3.82228637      -4.9608330
O       0.37126631      3.46583557      0.12062220
H       0.07714854      4.04823971      0.83130676
H       1.20088601      3.06696105      0.42689118
O       3.63132644      2.17065263      -3.9306354
H       3.33805037      1.35706282      -3.5014815
H       4.44349575      2.43062449      -3.4787116
O       5.64797449      2.95858312      -2.0943746
H       6.44447947      3.19345212      -1.6052073
H       4.96457195      3.57790470      -1.7924901
O       4.55648851      0.83541417      -0.5835442
H       3.90445733      0.39576224      -1.1445936
H       4.99485731      1.49108708      -1.1452405
O       4.56810284      3.68773794      2.67225909
H       3.85957766      4.19156933      3.10130191
H       5.02929544      4.32361841      2.10924125
O       2.54890037      0.01369967      -2.3590383
H       1.77168810      0.58451533      -2.2216365
H       2.21901417      -0.8342765      -2.6442389
O       6.33656883      1.82584202      1.43329346
H       5.75694704      2.30576444      2.03931427
H       5.76315784      1.29037952      0.87044406
O       7.60312080      3.66815352      -0.1158481
H       8.55229664      3.58992267      -0.0715088
H       7.23719740      2.97648787      0.46513632
O       2.54136729      5.39546585      3.36350465
H       1.63496614      5.31278944      3.04562950
H       2.91229939      6.15415287      2.89580560