63
 Ord_Energy   -226.9397618
O       -11.334428      -1.8841768      9.52718259
H       -11.786807      -1.1857914      9.03087856
H       -12.002608      -2.5559368      9.69949025
O       -15.350421      -0.0447841      7.94434401
H       -14.383839      0.00891347      7.97938026
H       -15.582041      -0.8803020      8.36211432
O       -9.1679856      -2.1589154      7.92887633
H       -8.3713025      -2.2474211      8.44499869
H       -9.9028898      -2.0617350      8.56059152
O       -12.590481      -0.1684585      7.76409419
H       -12.645827      -0.8889598      7.11581039
H       -12.099172      0.54246529      7.33625647
O       -15.120492      -3.4898369      6.39261634
H       -14.284107      -3.0223968      6.23630049
H       -14.954038      -4.4235147      6.21105374
O       -11.211750      1.62530357      6.11751458
H       -11.950786      1.54195581      5.48645519
H       -10.974802      2.54794403      6.14510659
O       -15.915285      0.59346634      5.36749815
H       -15.753806      0.37945616      6.30340911
H       -16.611295      1.24571061      5.35373377
O       -9.4806887      -0.5838366      5.54282245
H       -10.019716      0.18718352      5.75725693
H       -9.3487481      -1.0702532      6.36500151
O       -13.249256      -5.1105834      3.55508361
H       -13.689674      -4.4194519      3.04982032
H       -12.301127      -4.9122004      3.52418059
O       -13.486282      -3.7738011      9.90612349
H       -14.320804      -3.3800723      9.61001858
H       -13.638215      -4.0980461      10.7917280
O       -14.487365      -2.8933718      2.21700541
H       -15.120984      -2.5694480      2.88312065
H       -14.954323      -2.9336176      1.38703161
O       -12.544119      -1.2058915      3.31102923
H       -11.623220      -1.3964870      3.09036855
H       -13.117105      -1.7964797      2.80650704
O       -10.590880      -4.3918026      3.65875975
H       -10.509654      -4.3606530      4.62366981
H       -10.254699      -3.5426463      3.35294310
O       -10.639309      -4.0060125      6.40041813
H       -10.041280      -3.4813261      6.94428043
H       -11.141518      -4.5986990      6.98002651
O       -13.277384      1.20956173      4.43970001
H       -14.182092      1.06530554      4.73963769
H       -13.033230      0.41736762      3.93917255
O       -12.357629      -5.5098790      7.89494529
H       -12.793038      -4.9722103      8.56659424
H       -13.032573      -5.7620722      7.25198416
O       -14.273616      -6.0687347      5.83275024
H       -13.874821      -5.7627878      4.99556884
H       -14.623331      -6.9390551      5.66514950
O       -16.087943      -2.0008417      4.20611166
H       -16.062839      -1.0925721      4.53133706
H       -15.891096      -2.5609596      4.96844113
O       -9.8085760      -1.6851875      3.08689633
H       -9.0988583      -1.3893321      2.52367780
H       -9.6414204      -1.3073843      3.96963872
O       -12.736308      -2.2198395      5.92367672
H       -12.002565      -2.8362517      6.05133784
H       -12.677484      -1.8741363      5.02399072
O       -15.868541      -2.7363919      8.86898384
H       -15.671294      -3.0214345      7.95763989
H       -16.780156      -2.9610663      9.03763099