45
 Ord_Energy   -152.9326170
O       1.32774198      -1.2439109      4.17786121
H       1.79483724      -2.0428683      3.87120628
H       0.79347444      -0.9393469      3.45018625
O       3.36704588      -1.0822351      7.98275805
H       3.59871674      -0.6907288      7.12679529
H       4.11368465      -1.6283434      8.25966167
O       2.10539246      -6.2316980      8.48522377
H       1.94854939      -7.1649780      8.60308266
H       1.40982401      -5.7651400      8.98235512
O       2.13216591      -3.4563021      11.7424192
H       1.99742997      -2.6257402      11.2509727
H       2.10970283      -3.2358157      12.6692829
O       2.77245641      -3.4612197      3.60112405
H       2.69599414      -4.0598154      4.35556793
H       3.67921376      -3.1267716      3.61704850
O       5.29653502      -3.9208710      6.21773624
H       5.45914125      -3.5505476      7.09326553
H       4.39085054      -4.2595806      6.23399925
O       0.34505516      -4.7930235      9.96859455
H       -0.0987003      -4.0390605      9.56046677
H       0.87375265      -4.4224362      10.6869898
O       5.46027756      -2.7854640      8.80023861
H       6.23514843      -2.5967602      9.32228279
H       4.97393990      -3.4934558      9.26056194
O       -0.6088642      -2.3972802      8.77664948
H       -1.4548275      -2.0445013      8.51421928
H       -0.0393890      -2.3840820      7.98734379
O       3.80117106      -0.3105455      5.37373304
H       4.41409588      -0.9022452      4.91828156
H       2.95646095      -0.4286078      4.92380142
O       2.57985806      -4.6829752      6.18334389
H       2.06309175      -3.8964703      6.40708065
H       2.41863847      -5.3172979      6.89234924
O       3.99642801      -4.6886363      10.0140667
H       3.40692902      -4.3115520      10.6804190
H       3.45533895      -5.2797408      9.47796345
O       1.20332325      -2.2952525      6.75869131
H       1.12832057      -1.8896654      5.88548231
H       1.96592855      -1.8913050      7.20098257
O       5.34625578      -2.3249335      4.05875111
H       6.17632198      -2.3715510      3.59317231
H       5.42454004      -2.9094677      4.83566046
O       1.62993944      -1.2783243      10.2106733
H       2.24967933      -1.0707054      9.49847126
H       0.79704058      -1.5158617      9.78497505