36
 Ord_Energy   -117.4217450
O       4.23280764      -2.6260461      -25.737987
H       4.45317078      -3.5626838      -25.857440
H       3.64190769      -2.5947506      -24.975727
O       5.85328150      -4.6587858      -19.523656
H       6.48100328      -5.0738759      -18.937215
H       6.26457119      -4.6390028      -20.403450
O       2.12788892      -2.7842991      -20.491647
H       1.45284879      -2.3378448      -19.987875
H       2.98543191      -2.4535584      -20.170198
O       4.22504663      -5.4853720      -22.940527
H       3.76338053      -5.6679492      -22.109355
H       5.10796547      -5.1870069      -22.685211
O       5.56609440      -1.8070030      -22.488243
H       4.68055105      -2.1131751      -22.740131
H       6.01014137      -1.5620318      -23.307415
O       5.13083649      -5.2573003      -25.611499
H       4.71987915      -5.5229544      -24.777061
H       6.05425501      -5.0817117      -25.399816
O       3.19708228      -5.4704942      -20.379287
H       4.04183912      -5.2821302      -19.951908
H       2.70167136      -4.6424841      -20.351394
O       6.70000076      -4.3222842      -22.133544
H       7.21176529      -4.4385204      -22.942548
H       6.33987188      -3.4232084      -22.182390
O       7.74463701      -4.2070560      -24.748880
H       7.45152712      -3.2975921      -24.920686
H       8.55660534      -4.3305125      -25.234867
O       4.67064190      -2.0603523      -19.804023
H       5.07876444      -1.7789765      -20.633476
H       5.11461973      -2.8812968      -19.556053
O       6.65917015      -1.6491247      -25.129013
H       5.77330685      -1.9409682      -25.417779
H       6.87798023      -0.8774563      -25.643816
O       3.09495163      -2.9183542      -23.147760
H       2.59290361      -2.8101675      -22.331033
H       3.40267897      -3.8370089      -23.153995