54
 Ord_Energy   -189.7045900
O       1.64443016      2.67729735      2.08202600
H       2.21677423      2.50013876      1.32650745
H       0.95785153      1.99921644      2.07156086
O       -0.6404110      4.27785635      -0.0837760
H       0.12851356      4.12199306      -0.6431337
H       -0.3121535      4.79986668      0.65732497
O       1.92527962      4.11552477      -1.4895072
H       2.20525599      4.81210566      -0.8680787
H       1.96725893      4.49504852      -2.3635227
O       -1.8828693      2.58743334      1.76510787
H       -1.4129725      1.74435973      1.73432863
H       -1.5620485      3.10274720      1.01093459
O       4.87633228      5.60454512      2.08125472
H       5.56146240      6.24930573      2.23718619
H       4.26491308      5.65559721      2.83732414
O       2.99333000      5.62286377      4.03665829
H       3.03108811      4.71922731      4.38314915
H       2.13434482      5.69127178      3.60482693
O       0.64294004      5.21826077      2.39104486
H       1.03404474      4.34370375      2.22212505
H       -0.0920155      5.04677820      2.99294853
O       3.12328625      1.94154549      -0.2035093
H       3.92302299      2.26402569      0.24364010
H       2.76208615      2.64911437      -0.7523586
O       0.34807935      2.15136027      5.32961464
H       -0.2304203      2.81517458      4.93671942
H       1.25359905      2.47880220      5.23582602
O       5.06373310      1.23732269      3.76146197
H       5.79482746      0.78512758      4.17349243
H       4.40681553      0.55537063      3.53045130
O       2.14947176      -0.5178056      0.41891724
H       2.52549386      0.32767525      0.11666939
H       2.29122806      -1.1488399      -0.2816694
O       0.58592170      -0.3909571      4.45127487
H       0.47003874      0.50079554      4.82651615
H       0.20657057      -1.0038280      5.07507324
O       2.59263778      5.91960573      0.41269627
H       3.43243408      5.86197329      0.88505864
H       1.90548980      5.90828466      1.08997107
O       -1.3671760      4.04665232      3.98041153
H       -1.6239233      3.50294685      3.21239376
H       -2.1756501      4.36057663      4.37677670
O       5.11244965      2.85011411      1.38504934
H       5.09795332      3.78124905      1.63850093
H       5.17867279      2.33816361      2.20035791
O       3.12532783      -0.5459005      3.12204051
H       2.85131550      -0.6172467      2.19992542
H       2.31298375      -0.5346218      3.64311123
O       -0.0876846      0.43936944      1.86478639
H       0.04087432      0.05824433      2.74406338
H       0.55938464      0.02283873      1.28175843
O       2.92311406      2.89213562      4.52875853
H       2.49367404      2.79542780      3.66312766
H       3.73214126      2.37186456      4.47000170