42
 Ord_Energy   -142.1705320
O       -0.9631211      1.85863471      -1.9088348
H       -0.3976209      1.29051101      -1.3668460
H       -0.7285165      1.65440118      -2.8257112
O       0.31350070      4.35935259      -1.9965101
H       -0.4090174      4.94371414      -2.2685165
H       -0.0866785      3.49752092      -1.8183051
O       3.39582443      1.63764119      -0.3179143
H       3.93398309      1.66377997      0.46851119
H       3.25549340      2.56134987      -0.5928959
O       -1.8892121      5.56254196      -3.1248872
H       -2.4965040      4.83278942      -2.9460434
H       -1.6964781      5.51657009      -4.0690450
O       1.12187147      3.88685584      -4.6183452
H       0.88128215      4.07620907      -3.6982555
H       0.45370516      4.31709909      -5.1663665
O       -2.4389462      2.60331917      -5.3215303
H       -1.7047067      1.99575162      -5.1555767
H       -2.8865594      2.71731925      -4.4736647
O       -3.3029854      3.09565282      -2.6327242
H       -4.0611157      2.86828113      -2.1005852
H       -2.5431277      2.62274790      -2.2522323
O       -0.0666107      1.32260168      -4.5075182
H       0.45826811      2.12619734      -4.6252889
H       0.54314524      0.60852671      -4.2804479
O       0.97027493      0.23319335      -0.8709500
H       1.77145457      0.68586975      -0.5779453
H       1.19907081      -0.1818268      -1.7115335
O       3.01527882      4.11866570      -1.3382817
H       3.39426875      4.09124660      -2.2246151
H       2.07643676      4.32227278      -1.4558757
O       -1.1622990      4.93699503      -5.8699502
H       -1.6730068      4.11333132      -5.7685184
H       -1.4506332      5.34235859      -6.6829972
O       3.88902140      0.99483359      -3.0469138
H       3.94737172      1.86531544      -3.4591612
H       3.84332681      1.15267384      -2.0946281
O       3.79991651      3.65244198      -4.0855984
H       4.34857607      4.15895557      -4.6790881
H       2.88405585      3.75410795      -4.3947572
O       1.75434959      -0.5783241      -3.5586736
H       2.56457591      -0.0509412      -3.4369192
H       2.02972007      -1.4478255      -3.8362858