87
 Ord_Energy   -325.6060372
O       0.24720341      -2.0370548      -3.1954542
H       -0.5132664      -1.5030929      -3.4762179
H       1.02305721      -1.7695337      -3.7025317
O       1.13887346      -0.7828859      -0.8554407
H       0.79251815      -1.2021521      -1.6527048
H       1.84107215      -1.3486835      -0.5102281
O       0.30667646      3.66286114      -0.1014692
H       1.00926017      3.12182402      -0.4876302
H       -0.5022175      3.38786884      -0.5505380
O       -0.5870766      0.63459412      0.63526994
H       -0.8753075      1.28196092      -0.0224529
H       -0.0609461      -0.0205995      0.15381083
O       1.45697622      -0.9183106      3.62677497
H       1.50950464      -0.0597231      3.17928959
H       0.84087159      -0.8008533      4.35981446
O       3.13614607      -2.5033140      0.03781896
H       2.50716719      -3.2369557      0.12370171
H       3.46526299      -2.3117613      0.92305213
O       1.56576540      1.42175975      2.20648280
H       1.33477638      2.30500822      2.51597777
H       0.84352961      1.16782564      1.61315019
O       2.12851122      1.82073070      -1.3122031
H       1.78311036      0.93160289      -1.1462556
H       3.08782855      1.75734774      -1.2261811
O       -3.2254764      -0.1914299      -1.2716788
H       -2.7178718      -0.9200851      -0.8835299
H       -4.0059828      -0.0925813      -0.7145886
O       -0.3121928      -2.5381131      2.12517201
H       -1.0775383      -2.4174154      2.70320143
H       0.38157485      -1.9954265      2.51858108
O       -2.7800512      0.63976472      2.28736021
H       -3.5900658      0.54559575      1.77512605
H       -2.0294823      0.58586035      1.67507613
O       -1.9795683      -2.4116994      -0.1192007
H       -1.3319823      -2.3478660      0.59635589
H       -1.6471584      -3.0797139      -0.7307127
O       -1.0773057      2.17760669      -4.1287188
H       -0.1251005      1.97161107      -4.1521285
H       -1.2364067      2.82803434      -4.8068410
O       2.61023491      -1.0944897      -4.3595911
H       3.21997776      -1.1550671      -3.6017395
H       3.09606274      -1.3891923      -5.1252131
O       -2.4077006      -1.6819431      3.76505688
H       -2.5938382      -0.8797007      3.25103759
H       -1.8753607      -1.3791630      4.50889909
O       -0.5639913      -0.2805493      5.47968451
H       -0.7871540      0.57522619      5.06936093
H       -0.5841666      -0.1439696      6.42308460
O       4.25149076      -1.2277960      -2.2153425
H       4.54162360      -0.3875484      -1.8397215
H       3.96640988      -1.7710970      -1.4684423
O       1.52978691      1.53909826      -4.0294228
H       1.91225330      0.67688441      -4.2271557
H       1.78550497      1.74254835      -3.1190700
O       -1.2681542      2.00911703      4.18735328
H       -1.9080877      1.65538209      3.55289572
H       -0.7756133      2.68861883      3.71457637
O       4.86914402      1.26632291      -0.9728867
H       4.70716675      1.07782916      -0.0299552
H       5.65270895      1.80716515      -1.0165969
O       -0.6727084      -4.2052416      -1.8482978
H       -0.9901394      -4.8771434      -2.4457706
H       -0.3045114      -3.4903796      -2.3966966
O       0.32640332      3.87594426      2.62257263
H       0.27727597      3.85280413      1.64955833
H       0.53282202      4.77568241      2.86093552
O       4.21029560      0.74905527      1.57630727
H       3.31833943      1.07573410      1.75982351
H       4.26365719      -0.1188746      1.99129866
O       -5.1095876      -0.1137148      0.82239169
H       -6.0413591      0.02149399      0.96985244
H       -4.8998685      -1.0122793      1.13586450
O       1.10966726      -4.2963709      0.39875084
H       0.59431674      -3.8263670      1.06811190
H       0.52917324      -4.3938895      -0.3655189
O       -4.1759196      -2.5258993      1.66851968
H       -3.4815255      -2.6413976      1.00457433
H       -3.7178968      -2.4447398      2.51402319
O       -1.9265149      -0.5077434      -3.7716170
H       -2.5084641      -0.4379433      -3.0038178
H       -1.6974993      0.39910654      -4.0107994
O       3.86837697      -1.8504342      2.70989294
H       4.32974326      -2.4100890      3.32934972
H       3.02901410      -1.5980223      3.13018665
O       -1.7414052      2.19232688      -1.3856073
H       -1.4975540      2.26820775      -2.3173293
H       -2.3379052      1.43208278      -1.3331173