24
 Ord_Energy   -68.4520340
O       1.68690050      0.40816879      4.05503559
H       1.55359435      0.03677057      4.92300606
H       1.28069508      1.29156959      4.06437349
O       0.47132212      2.63136530      0.86942053
H       0.38585532      1.69080496      1.08799851
H       0.79832578      2.64056516      -0.0406583
O       3.06284904      0.05261295      -0.0951431
H       3.40690064      0.44078380      0.72937548
H       3.65752506      -0.6543362      -0.3311178
O       2.76111817      3.77308154      1.99540281
H       3.01795197      4.54316473      1.49490047
H       1.97720599      3.40525770      1.55128443
O       1.84846556      2.18786716      -1.5040667
H       2.31002283      1.43780947      -1.0980868
H       1.63884199      1.91537535      -2.3945846
O       0.67128706      2.95800400      3.75810719
H       1.47759640      3.43672585      3.52759194
H       0.19363540      2.91408730      2.92064714
O       3.80301166      1.16041923      2.27543235
H       3.61021042      2.10535026      2.20849967
H       3.21211243      0.82468265      2.96140265
O       0.59773922      -0.0887403      1.44119453
H       1.37244844      -0.2185465      0.88035142
H       0.92579663      -0.0958594      2.34936738