69
 Ord_Energy   -252.4710389
O       17.5892236      11.0698017      -8.0608324
H       17.4221554      11.8521275      -7.5430569
H       18.3619769      11.2623848      -8.6242515
O       18.7618933      5.33173569      -9.7079365
H       18.2202760      4.77254300      -10.278726
H       18.6516457      6.23945473      -10.036171
O       19.2325570      4.43186028      -13.318962
H       18.4979016      4.17398592      -12.736540
H       19.3147262      3.74681681      -13.977644
O       18.8389482      7.22203248      -13.465551
H       18.9728619      6.26669563      -13.498639
H       17.9399709      7.40729326      -13.765128
O       22.4764002      7.57104288      -11.107770
H       23.4143180      7.40030536      -11.091898
H       22.0364227      6.70448469      -11.167296
O       17.1527250      3.98647287      -11.588214
H       16.5752815      4.75124517      -11.737643
H       16.6579634      3.37013989      -11.033785
O       20.9284015      9.03535669      -13.029402
H       21.5111721      8.58872780      -12.404145
H       20.2767574      8.37876234      -13.311084
O       15.3220240      4.18861805      -7.6626391
H       15.9999806      4.85202052      -7.4753160
H       14.4998489      4.67751920      -7.7882421
O       20.6537955      8.73574160      -9.2660497
H       21.4202101      8.39168672      -9.7371348
H       19.8884469      8.45774357      -9.7940976
O       18.4862197      7.86554376      -10.739441
H       18.6026445      7.74252058      -11.689440
H       17.7789139      8.50469875      -10.592289
O       18.6853931      8.55087453      -7.1799008
H       19.4867186      8.55397093      -7.7186572
H       18.2683635      9.40574775      -7.3383196
O       16.3700590      9.64653907      -10.129789
H       15.8470226      8.91246487      -9.7787679
H       16.6936851      10.1655232      -9.3823062
O       19.7124734      11.3376179      -9.6927288
H       20.1923620      10.5165847      -9.5142465
H       19.6257846      11.3935823      -10.651616
O       16.1630825      7.95419357      -13.914083
H       15.6537985      8.10734388      -14.705195
H       16.3748632      8.83051555      -13.540807
O       21.1089205      5.22418472      -11.247995
H       20.6512918      4.90762604      -12.033970
H       20.4416672      5.19635810      -10.548622
O       13.5107403      4.32660715      -10.881772
H       14.0657466      4.94062486      -11.381698
H       14.0955168      3.60680795      -10.613891
O       15.2488791      7.28797682      -9.2964159
H       14.4219276      6.88693213      -9.0041695
H       15.9454441      6.95847751      -8.7094321
O       15.4570688      6.14066980      -11.853964
H       15.4433001      6.60652573      -11.005763
H       15.6302259      6.78565722      -12.549103
O       19.5061490      11.2853815      -12.540757
H       20.0574640      10.5024449      -12.718797
H       19.8605858      11.9936600      -13.072521
O       17.2227076      6.26055241      -7.6195187
H       17.6942237      7.05158660      -7.3201457
H       17.8198186      5.81455795      -8.2372823
O       13.0442411      5.69944554      -8.5747595
H       13.0844792      5.19623307      -9.4077034
H       12.1240299      5.77453131      -8.3387395
O       16.8514390      10.2718786      -12.763337
H       17.7340253      10.6604678      -12.743285
H       16.5775921      10.1786045      -11.838951
O       15.5304070      2.55939044      -9.8221504
H       15.5092136      3.10261670      -9.0133405
H       15.4657775      1.65033541      -9.5423424