54
 Ord_Energy   -189.6714630
O       4.35664129      14.6508818      -6.0047397
H       3.85154605      14.6126394      -5.1767110
H       4.22221518      15.5357809      -6.3801541
O       1.88725567      14.3615494      -10.082391
H       2.60746193      14.9762897      -10.259647
H       1.88412571      14.2438946      -9.1185054
O       5.33172703      13.9566450      -8.6004419
H       5.07364941      13.0314217      -8.6933326
H       5.19751215      14.1797419      -7.6710085
O       0.86759979      16.7326679      -6.7557525
H       0.01239281      16.6125298      -7.1895837
H       0.71741462      16.6121521      -5.8080515
O       0.28977352      15.9309025      -4.1084179
H       -0.1277941      16.3730221      -3.3739593
H       -0.3809385      15.3487873      -4.5090255
O       2.64206052      14.3262520      -3.9024887
H       2.33465838      13.4123039      -3.9045913
H       1.85198832      14.8804169      -3.9113042
O       -1.4465014      14.3697138      -5.4815559
H       -0.9945639      13.5569935      -5.7440018
H       -1.6239543      14.8581333      -6.2955317
O       3.66509867      16.9631176      -7.3270092
H       2.71585035      17.0756912      -7.1890068
H       3.78433800      16.7810440      -8.2671012
O       -1.6023142      15.9340210      -7.8723411
H       -1.3709864      15.2803764      -8.5565290
H       -2.3437345      16.4301624      -8.2087421
O       4.13712645      11.7867336      -5.9048600
H       4.41418505      12.7098684      -5.8686366
H       4.21556091      11.5188026      -6.8293581
O       4.39852238      11.2594175      -8.6637630
H       3.54300451      11.3235569      -9.1233282
H       4.87746048      10.5447330      -9.0753860
O       -0.5782278      11.3716116      -8.8058919
H       -1.2146623      10.6619940      -8.7734174
H       -0.3502564      11.5873032      -7.8855304
O       1.98289895      11.5239344      -4.2955889
H       2.77468991      11.5286770      -4.8649783
H       2.13055491      10.8622065      -3.6254541
O       0.21097286      12.2407961      -6.3355484
H       0.79530787      12.9152021      -6.7195940
H       0.69603699      11.8670607      -5.5900597
O       -0.8638675      14.0901728      -9.6987152
H       0.03371894      14.2677927      -10.012725
H       -0.8817589      13.1530733      -9.4718093
O       4.19191504      15.9831877      -10.006749
H       4.66268492      15.2491846      -9.5709238
H       4.81276464      16.3886566      -10.606155
O       1.85783529      14.1853189      -7.3232836
H       2.73700285      14.1871719      -6.9283590
H       1.48188388      15.0575171      -7.1399059
O       2.04557657      11.5722694      -9.9599971
H       2.03219700      12.5103254      -10.196199
H       1.16484225      11.3766947      -9.6207494