24
 Ord_Energy   -68.8637695
O       3.79689908      2.16874838      2.91507292
H       3.77236009      1.50629044      2.20164704
H       4.71425819      2.28004336      3.14973021
O       3.25941205      2.34651375      -1.3435884
H       3.73947668      2.60756803      -2.1248624
H       2.44421983      1.91255832      -1.6489634
O       1.41677999      1.74312270      4.36197090
H       1.38089049      2.33862567      5.10736609
H       2.28278232      1.88686061      3.94985700
O       3.62061572      0.47839937      0.78426486
H       2.75775242      0.04888733      0.73207551
H       3.65562105      1.07168281      0.02242502
O       0.93510437      1.02251267      -1.9325889
H       0.05782942      1.37623715      -2.0643205
H       0.87298381      0.44849160      -1.1527869
O       0.88880825      -0.3688047      0.48090547
H       0.58948481      0.40659827      0.99288905
H       0.46454528      -1.1335431      0.85891420
O       2.18582344      3.67281318      0.99134648
H       2.56387925      3.35649014      0.16163500
H       2.77614689      3.34599876      1.68125272
O       0.21817920      1.84968996      1.83157039
H       0.45963129      1.78646350      2.76561308
H       0.76148289      2.56592131      1.47316015