69
 Ord_Energy   -252.1731187
O       11.6215265      11.0170989      -13.823112
H       12.0969449      10.7420779      -14.619511
H       12.0957644      11.7809170      -13.475603
O       15.8130282      7.09431741      -13.755424
H       15.0976740      6.79215422      -13.181460
H       16.5870683      7.18720864      -13.185422
O       17.0884302      9.98876755      -10.840919
H       17.7992112      10.4686759      -11.283633
H       16.2616272      10.4087101      -11.119792
O       17.1060210      11.8700539      -14.419439
H       16.5270383      11.0952333      -14.335228
H       17.8007379      11.7685943      -13.760907
O       12.8474130      7.40835987      -16.525379
H       12.6056852      7.18982351      -15.606941
H       12.2476732      6.92329709      -17.086128
O       15.5164640      8.28403482      -9.1555076
H       14.6398319      8.48032680      -9.5115491
H       16.1155383      8.93420001      -9.5446233
O       13.9755138      6.32769472      -11.831534
H       14.6662155      5.96981572      -11.261494
H       13.7082183      7.17093324      -11.435083
O       14.6408665      10.9233054      -11.774377
H       14.1941019      11.7511945      -11.983134
H       14.8301860      10.4984993      -12.626709
O       17.1817950      11.0348018      -17.083496
H       17.4842526      10.1227511      -16.999006
H       17.3230389      11.4320573      -16.213010
O       16.2246506      5.85224951      -10.118226
H       15.9823581      6.68352580      -9.6696836
H       16.4157850      5.21546221      -9.4350002
O       18.0417406      8.36775227      -16.584915
H       17.1948298      7.88914318      -16.613186
H       18.6301724      7.90851265      -17.179881
O       15.6994129      7.00528912      -16.489706
H       15.7632867      6.88062058      -15.529982
H       14.7600637      7.12578029      -16.661521
O       19.1586510      8.83138201      -13.957243
H       18.8119124      8.18488877      -13.329064
H       18.7573927      8.65044240      -14.815371
O       14.8311273      13.3266934      -15.068109
H       14.6609113      12.9538766      -15.939335
H       15.6938006      12.9767752      -14.801157
O       15.2866362      9.79556603      -14.163412
H       14.5596927      9.89613863      -14.791660
H       15.4765614      8.85372245      -14.076932
O       10.8805980      8.90091350      -12.345038
H       11.1098006      9.69155304      -12.867703
H       9.94922240      8.95873451      -12.150627
O       17.7947204      7.46021735      -11.874570
H       17.4268156      6.79404982      -11.281318
H       17.5514642      8.32036131      -11.500460
O       12.1626108      6.90877859      -13.939872
H       11.6445463      7.56871634      -13.462268
H       12.7223712      6.49553799      -13.271696
O       19.0672208      11.1231932      -12.531213
H       19.1759583      10.3221677      -13.077292
H       19.9415509      11.4640511      -12.363599
O       14.6466674      11.8391495      -17.576772
H       14.5875382      12.2431735      -18.438043
H       15.5645152      11.5276118      -17.475798
O       13.2002617      8.78981831      -10.746340
H       13.6676746      9.57184680      -11.075115
H       12.3260591      8.81487787      -11.155084
O       13.2764810      13.1365402      -12.863110
H       13.0315971      14.0082348      -12.565208
H       13.8094714      13.2558691      -13.670107
O       13.1814105      10.1209808      -15.954127
H       13.0477370      9.22795477      -16.296970
H       13.6117458      10.6604994      -16.630505