21
 Ord_Energy   -56.7731895
O       33.3201675      3.67790771      -4.9266505
H       32.5693283      4.05519104      -5.3995161
H       33.2312164      2.72172499      -5.0189070
O       30.6791859      1.33557105      -3.2726559
H       31.4622688      1.09340739      -3.7927153
H       30.4669952      0.57955551      -2.7305374
O       31.2615147      0.75683981      -7.2016382
H       30.5657787      1.30364144      -6.7957177
H       31.0380287      0.67899585      -8.1243276
O       29.5462093      2.30041075      -5.7534503
H       29.8209076      3.22740650      -5.7379112
H       29.7171593      1.96706748      -4.8642549
O       31.4357605      4.08939075      -2.8737766
H       32.2791672      4.00390577      -3.3428361
H       31.0982819      3.18779206      -2.8065073
O       32.8288918      0.80535871      -4.9971599
H       32.3397827      0.72926098      -5.8361425
H       33.5777130      0.21815911      -5.0577240
O       30.6316185      4.87184906      -5.3866038
H       30.7947636      4.71923590      -4.4393873
H       30.4380436      5.80069637      -5.4810242