60
 Ord_Energy   -214.8428800
O       -6.7074818      3.81843162      -8.0168438
H       -6.4450364      3.85022902      -8.9532394
H       -6.4530992      4.66675615      -7.6298394
O       -7.8212299      1.26756084      -8.7969713
H       -7.6350021      2.18939209      -8.5846815
H       -7.3233246      1.07368577      -9.6016979
O       -1.2575540      0.42137265      -7.6835146
H       -1.8080537      -0.3607004      -7.8089976
H       -1.4934808      1.02216947      -8.4029340
O       -1.1613339      1.59344387      -5.2400822
H       -1.1536929      1.14673817      -6.1062927
H       -0.3107795      1.43154943      -4.8414030
O       -4.9357872      -0.2910599      -6.4769768
H       -4.5594711      0.01531173      -5.6354546
H       -5.8965067      -0.3165904      -6.4021596
O       -3.2242176      5.65159178      -8.2805299
H       -2.8043499      5.10089636      -7.6055798
H       -4.0617041      5.93813372      -7.8993983
O       -2.5161147      2.03149605      -9.6247634
H       -2.5571498      2.85969067      -10.114819
H       -3.1968998      2.10011625      -8.9358396
O       -2.5331289      3.81684637      -6.2661318
H       -1.9149496      3.20069218      -5.8584537
H       -3.2056784      3.26192236      -6.6917719
O       -6.2435941      0.90289044      -11.112265
H       -5.4149336      0.44604197      -10.883479
H       -6.5232801      0.55602878      -11.955348
O       -4.3799758      2.23930979      -7.5949220
H       -5.1929516      2.73447442      -7.7439942
H       -4.6138739      1.37842381      -7.2270765
O       -5.5225505      2.88721800      -3.4520990
H       -5.9898147      2.85182452      -2.6213064
H       -6.1877346      2.76448679      -4.1532197
O       -7.7321176      -0.0882712      -6.4807262
H       -7.8165407      0.32001966      -7.3626861
H       -8.4881982      -0.6564359      -6.3638000
O       -3.1091532      4.54899454      -10.744422
H       -3.1245596      4.99874783      -9.8795394
H       -2.6932714      5.14788055      -11.358205
O       -3.8869626      -0.2385371      -10.466647
H       -3.6889216      -0.8417340      -9.7413387
H       -3.3212175      0.53322125      -10.320639
O       -5.8206372      3.67280149      -10.558260
H       -5.8995628      2.75925851      -10.860014
H       -4.9114966      3.95040774      -10.723600
O       -3.7615037      0.79934907      -4.2985930
H       -4.2557363      1.55365860      -3.9547362
H       -2.8739352      1.10972798      -4.5155015
O       -3.2093436      -1.6447776      -8.0792036
H       -3.8571541      -1.2178386      -7.4912834
H       -3.1708071      -2.5631468      -7.8256697
O       -4.4361939      5.15385389      -4.7392110
H       -3.6663010      4.75802040      -5.1722002
H       -4.8119244      4.45253086      -4.1938557
O       -7.2983641      2.54193497      -5.4728913
H       -7.5201201      1.63653672      -5.7232403
H       -7.1955981      3.03054118      -6.2970628
O       -5.7113289      6.15844727      -6.8861284
H       -6.0770201      7.02100992      -6.7102994
H       -5.2975029      5.85192442      -6.0582518