87
 Ord_Energy   -325.4772320
O       -0.0200241      -3.0310723      -2.6511660
H       -0.4670246      -2.4663516      -3.3023864
H       0.87014873      -3.2283896      -2.9666443
O       1.11770255      -1.1691406      -0.8892339
H       0.66456424      -1.7328778      -1.5265150
H       1.46684285      -1.7490110      -0.1960186
O       1.71329310      2.70899744      -1.1078848
H       2.39400291      2.07662866      -1.3765798
H       0.89962855      2.39373594      -1.5288721
O       -0.1182116      0.38605955      0.93603994
H       0.58227533      0.95336471      1.28200963
H       0.25263133      -0.1005255      0.18706237
O       1.98119359      -2.8867481      1.12437301
H       1.17870958      -3.4261572      1.20119574
H       2.06737662      -2.4094385      1.95631417
O       -0.5347867      1.80560108      -2.4433818
H       -0.2063143      1.58529437      -3.3241999
H       -1.1527993      1.10248670      -2.1982776
O       0.04733101      4.68004136      0.14854097
H       0.70064709      4.18041943      -0.3580287
H       -0.8081049      4.48139048      -0.2514076
O       1.98500547      2.10602673      1.57988443
H       1.65051342      2.85121929      2.09224129
H       1.93906954      2.35916233      0.64550441
O       3.22155078      0.46583452      -1.7047560
H       2.48134910      -0.1012729      -1.4353201
H       3.99463319      0.15475857      -1.2194856
O       -2.5725883      -0.0186618      -2.0015194
H       -2.7041012      -0.5911914      -1.2347260
H       -3.2919334      0.62484706      -1.9981161
O       -1.3842435      -1.5547234      2.37980783
H       -1.2188928      -1.2775823      3.28549330
H       -0.8914427      -0.9158255      1.83962792
O       -2.3179647      1.98953860      1.29847972
H       -2.3139732      2.63227485      0.57947660
H       -1.5790629      1.38945486      1.11372396
O       -3.0765508      -1.7433263      0.15906805
H       -2.5955813      -1.6893347      0.99635237
H       -2.8107518      -2.5754984      -0.2518435
O       0.40370418      0.84381313      -4.9127378
H       1.20673597      0.33254069      -4.7052049
H       0.55859972      1.27038108      -5.7510621
O       2.69271753      -3.3103590      -3.3273718
H       3.14445629      -4.0007361      -3.8058515
H       3.14261460      -3.2300998      -2.4672527
O       -0.2348158      -0.2608617      4.65529033
H       -0.4587489      0.62810585      4.32540099
H       -0.5274571      -0.2869795      5.56285036
O       3.90739749      -3.0759100      -0.9003779
H       4.45618479      -2.3142479      -0.6781142
H       3.30200950      -3.1784264      -0.1532677
O       2.59484901      -0.5705614      -4.2100528
H       2.64056370      -1.5139257      -4.0185313
H       2.94524468      -0.1292297      -3.4235311
O       -0.9509404      2.18609385      3.73385009
H       -1.5746468      2.15622068      2.99538055
H       -0.3912422      2.95057982      3.55452684
O       5.21310834      -0.6668366      -0.0820434
H       4.75100449      -0.4117554      0.73752318
H       6.13617020      -0.4696436      0.05085688
O       -1.9467779      -4.0578302      -1.0130092
H       -2.3721989      -4.7866468      -1.4577868
H       -1.2483893      -3.7370590      -1.6091001
O       0.68426790      4.30416073      2.76509825
H       0.39012160      4.50500305      1.85810360
H       0.99629671      5.12403949      3.13826673
O       3.82784879      0.11031034      2.10061695
H       3.25806098      0.87435402      1.93140543
H       3.33330266      -0.4448653      2.71275690
O       -4.5863243      1.97087783      -1.6507169
H       -5.4406466      2.10571043      -2.0513628
H       -4.7398652      1.50685804      -0.8073727
O       -0.4560457      -4.0502137      1.42825227
H       -0.8198006      -3.2606070      1.85288079
H       -0.9754084      -4.1821924      0.62642858
O       -4.6522434      0.58345729      0.67264433
H       -4.3300014      -0.3163613      0.53964982
H       -3.9042312      1.06994152      1.05092757
O       -1.3726219      -1.2746142      -4.2097353
H       -1.9111467      -0.8641709      -3.5185013
H       -0.8256209      -0.5688221      -4.5751917
O       2.08937346      -1.5234902      3.66230527
H       2.36486369      -2.0902336      4.38051154
H       1.29874085      -1.0572139      3.97240895
O       -2.2611506      3.53581676      -1.0838165
H       -3.1354121      3.20081471      -1.3180153
H       -1.6396452      3.03847539      -1.6362902