78
 Ord_Energy   -288.4207416
O       2.37651031      4.55006453      3.39007027
H       3.06833150      5.19521604      3.51370703
H       2.78464999      3.67536543      3.52201230
O       -2.3321610      3.88451345      3.67573228
H       -1.5570757      4.13538401      4.19235956
H       -2.0372448      3.81317467      2.75671673
O       2.17037472      0.32875811      1.80521877
H       2.41081652      0.77518943      0.98354559
H       1.22647509      0.50499166      1.94055984
O       -2.8624075      -0.2524982      2.91526507
H       -3.2806745      0.44416265      3.43755012
H       -2.3773273      -0.8282417      3.52210931
O       3.39767186      2.06178003      3.70144672
H       3.23844406      1.65345043      4.56295958
H       3.03619255      1.45065696      3.04745259
O       -3.9321539      1.87817647      4.42583003
H       -3.3797194      2.63434535      4.15006436
H       -4.8361194      2.18021089      4.42007961
O       0.12295009      0.71397146      -1.3601017
H       -0.6862682      1.23882972      -1.3577992
H       -0.1282368      -0.1600966      -1.0361171
O       -2.2997005      -1.5688891      7.17942003
H       -1.3880616      -1.5350094      7.52592710
H       -2.8004076      -2.1259928      7.76840344
O       -2.3921137      2.05801275      -1.0872049
H       -2.7456402      1.26263926      -0.6485898
H       -3.0153626      2.29873694      -1.7670993
O       0.28680675      -1.3718783      7.88669972
H       0.78315231      -1.6223480      7.09638661
H       0.65299068      -0.5312907      8.18802748
O       2.44507834      1.80247497      -0.5335935
H       3.03940211      1.89471530      -1.2729886
H       1.61565316      1.42635560      -0.8833155
O       -1.3304924      3.40744338      1.13241569
H       -1.7220097      3.07308436      0.31693355
H       -0.4438570      3.74865928      0.93419309
O       2.41360221      0.83904598      6.00339007
H       1.57021048      1.07683085      5.57822384
H       2.27929737      0.99291990      6.94517103
O       1.27177187      4.08569442      0.79044556
H       1.68294343      4.26800748      1.64469299
H       1.77056133      3.37136918      0.37751518
O       1.48949708      -1.6848737      5.32681669
H       1.90937481      -0.8389109      5.54208846
H       1.91029779      -1.9914808      4.51537742
O       -2.2340225      1.17026845      6.51998821
H       -2.9250815      1.40306712      5.88599090
H       -2.3700423      0.25288240      6.78664468
O       -0.8510320      -1.8131586      -0.4365970
H       -0.6212133      -2.1266425      0.45521210
H       -0.8722260      -2.5858506      -0.9960107
O       0.11576741      4.14654592      5.10775365
H       0.10845273      3.18114275      5.01203338
H       0.85702636      4.44681636      4.56954043
O       -0.4662080      0.99368833      2.20912859
H       -1.2804618      0.48721191      2.31720913
H       -0.7153913      1.84470078      1.82409032
O       -0.1987033      -2.7134089      2.04072906
H       -0.6660405      -2.5521300      2.86839532
H       0.74189760      -2.6588477      2.25077553
O       -1.2435417      -1.8281716      4.56308028
H       -1.7157167      -1.8870755      5.40213319
H       -0.3161893      -1.6794299      4.79621517
O       -0.4396445      3.01844982      7.70410943
H       -0.2308710      3.59946285      6.96227197
H       -1.1712954      2.46037868      7.40576807
O       1.37609032      1.19389851      8.59958995
H       1.70660846      1.45550827      9.45472704
H       0.74252004      1.88004318      8.32396264
O       2.50779099      -2.2049727      2.74412872
H       2.45783463      -1.3015800      2.38464545
H       3.33935195      -2.5727158      2.45718016
O       -3.1411777      -0.2381145      0.13458718
H       -2.4312557      -0.8480122      -0.1051480
H       -3.2112871      -0.2880838      1.09703173
O       0.02315283      1.39420989      4.87954453
H       -0.1835944      1.24169992      3.94896702
H       -0.7635344      1.21581540      5.41013416