27
 Ord_Energy   -80.9576874
O       32.8416290      -18.038011      11.1050167
H       33.2355385      -18.264162      11.9612007
H       33.2326889      -18.631900      10.4688587
O       30.7954922      -16.865133      16.4748363
H       30.1915398      -16.247015      16.0240726
H       30.5484905      -16.867557      17.3950787
O       33.6079407      -18.639291      13.7497606
H       34.1067581      -19.324077      14.1868849
H       32.6716576      -18.777341      13.9858608
O       30.9602222      -18.703853      14.3135796
H       30.6726685      -18.143146      13.5804787
H       30.8124619      -18.186693      15.1158743
O       27.9011497      -16.596656      13.0238590
H       27.3709259      -17.382692      12.9166489
H       28.7351112      -16.774271      12.5599737
O       33.0819359      -16.050594      14.9544554
H       32.4086380      -16.325071      15.5919218
H       33.4073181      -16.862688      14.5487528
O       30.4987240      -16.933418      12.1018620
H       31.2293720      -17.325305      11.6049118
H       30.8256760      -16.086778      12.4363403
O       31.5034199      -14.572594      13.2957582
H       31.9354057      -13.794328      12.9550066
H       32.1474800      -15.026494      13.8675642
O       29.2802620      -15.177492      15.0019655
H       28.6668415      -15.621915      14.3993282
H       29.9514732      -14.771811      14.4393425