75
 Ord_Energy   -277.3462220
O       10.4583998      12.7288122      -11.929788
H       10.1785469      11.9226570      -11.480109
H       10.5635767      12.5121689      -12.864240
O       14.0859098      9.06003761      -18.021968
H       14.2105751      8.54562855      -18.814388
H       13.1270666      9.20784950      -17.928607
O       11.7114401      9.08495045      -12.055806
H       12.4223576      9.71881199      -11.865875
H       10.9391432      9.39165783      -11.566889
O       14.6781101      9.05825710      -15.279982
H       15.0741510      9.93418694      -15.158143
H       14.5603247      8.93307400      -16.230270
O       13.2533121      12.3865070      -9.2102289
H       12.8406334      13.1883450      -9.5564546
H       14.1408892      12.6014414      -8.8977537
O       14.3769989      11.8802490      -17.477321
H       14.9508972      11.9072495      -16.700815
H       14.3969707      10.9661474      -17.785152
O       11.8997374      9.35258865      -14.763341
H       12.8527145      9.26670361      -14.895244
H       11.7309294      9.13488483      -13.835946
O       13.7353706      8.16946888      -8.5810651
H       13.6974068      7.79436874      -9.4784069
H       13.7165203      7.43048573      -7.9778418
O       13.7413168      10.8674202      -11.513819
H       14.6241007      10.4787207      -11.478124
H       13.5976944      11.3666725      -10.699064
O       11.6975374      10.1855097      -8.5731554
H       12.3404732      9.46784973      -8.5345888
H       12.2151432      10.9982777      -8.6661882
O       16.5802841      13.4014463      -11.145929
H       15.8390646      13.9657669      -11.411553
H       16.4298458      13.1671867      -10.224113
O       9.78795719      10.3388977      -10.473839
H       8.93062496      10.1268644      -10.115520
H       10.4246111      10.2805834      -9.7373962
O       13.6308336      12.6346960      -13.619311
H       12.7518606      12.5430546      -14.004844
H       13.6603003      12.0414972      -12.853034
O       16.3014069      9.70273209      -11.587853
H       16.8368816      10.3300819      -12.090430
H       16.1521778      8.92298412      -12.136241
O       15.5480680      7.51929235      -13.194299
H       15.2184315      8.00839901      -13.966982
H       16.0408497      6.77480841      -13.530847
O       14.3330479      14.7773952      -11.973557
H       14.1042137      14.1502466      -12.674062
H       13.5393038      14.8343983      -11.429902
O       13.5505133      7.21839571      -11.122830
H       12.8099613      7.73520899      -11.471570
H       14.2248077      7.22848415      -11.810272
O       17.6546726      11.7513781      -12.953209
H       17.2849350      12.3916626      -12.315035
H       18.5861301      11.9412880      -13.021966
O       11.1097546      12.0345831      -14.626766
H       11.1876307      12.3338299      -15.541426
H       11.3236065      11.0901384      -14.639706
O       15.9425955      12.5865936      -8.4738903
H       16.4038792      12.8396063      -7.6791753
H       15.9979649      11.6149597      -8.5370006
O       15.7164965      11.6036501      -15.000550
H       16.4760227      11.6807251      -14.412691
H       14.9769297      12.0397310      -14.546286
O       11.7267866      12.5292006      -17.332328
H       11.5311356      13.2312880      -17.947101
H       12.6882458      12.3808489      -17.375549
O       15.9765339      9.91552162      -8.8296775
H       16.2152710      9.76961613      -9.7556810
H       15.2229557      9.33834743      -8.6574678
O       11.9106550      14.4854364      -10.466381
H       11.3765955      13.8913164      -11.024843
H       11.3257923      15.1749964      -10.164533
O       11.4907026      9.66212940      -17.516014
H       11.4100056      10.6228886      -17.559867
H       11.4494638      9.44120026      -16.574380