66
 Ord_Energy   -238.2047892
O       0.49574537      -1.1319411      -1.0573444
H       0.93720454      -0.5622189      -0.4172916
H       0.74234926      -0.8228740      -1.9366608
O       -5.6701327      3.30361294      1.55442572
H       -5.3088404      3.75444744      0.77767130
H       -5.1447617      3.61716150      2.29870377
O       1.49943142      0.57924226      0.98812736
H       2.31113676      0.44501749      1.46911006
H       0.77072517      0.34225960      1.59224425
O       0.68361912      -0.2785676      -3.7856667
H       -0.2369911      -0.5992087      -3.8142980
H       1.13907134      -0.6840634      -4.5181059
O       -0.1692781      5.40591214      -0.0591460
H       0.07458327      4.46486878      -0.0638804
H       0.63742641      5.89544380      0.08536310
O       -3.6992540      4.41222545      -3.3018310
H       -2.7757165      4.68361923      -3.1480195
H       -4.0436626      4.97994605      -3.9859987
O       -3.8667493      0.49498275      -0.9652335
H       -4.6431967      0.46526549      -0.3942861
H       -3.3522813      -0.3195537      -0.8621527
O       -3.7672911      4.40020225      3.47142740
H       -3.9777450      5.00041471      4.18165179
H       -3.3145312      4.92683902      2.78886893
O       -3.0195049      1.65281360      -3.2915784
H       -3.4276437      1.28369926      -2.4929956
H       -3.3690769      2.54516860      -3.3973107
O       -2.1775561      -1.6524186      -0.8065709
H       -2.3117477      -1.9686614      0.09534642
H       -1.2254343      -1.4788816      -0.8836800
O       -2.6348411      5.77952210      1.39841394
H       -1.7589631      5.70675392      1.00269965
H       -3.2469399      5.50870794      0.69964373
O       0.31514704      2.71969231      -0.3194609
H       0.79744977      2.01189567      0.12530281
H       0.19777682      2.47702006      -1.2499788
O       -2.5729002      1.89796720      2.99408023
H       -2.5152964      2.08019514      2.04280492
H       -2.9249213      2.70759886      3.37997576
O       -0.5799003      -0.0525262      2.56120559
H       -1.1187763      -0.8254469      2.35644325
H       -1.1916958      0.63690969      2.85096059
O       -1.9415763      -0.9754617      -3.6381452
H       -2.4200169      -0.1372210      -3.6827880
H       -2.1392643      -1.3550339      -2.7730583
O       -2.4321953      -2.1809674      1.94602762
H       -2.4978615      -2.9778965      2.46527645
H       -3.1381313      -1.5843648      2.25542163
O       -4.1544056      4.40455880      -0.5018486
H       -4.1261447      4.45203193      -1.4627862
H       -3.4988687      3.73904836      -0.2350888
O       -0.2957841      2.21045983      -2.9525779
H       -1.2382227      2.00807045      -3.0492716
H       0.17932444      1.45282216      -3.3142071
O       -6.0236101      0.72128337      0.82938361
H       -5.9360959      1.64934579      1.11384562
H       -6.9554510      0.55590222      0.71464518
O       -4.2395261      -0.3518939      2.74699016
H       -3.7234686      0.43974894      2.95352005
H       -4.9380657      -0.0620976      2.14869378
O       -1.0954567      4.93396870      -2.7664100
H       -0.8221262      5.21551890      -1.8857211
H       -0.6620603      4.08537177      -2.9285381
O       -2.3896643      2.42958444      0.30017553
H       -2.8085531      1.68516434      -0.1536790
H       -1.4537668      2.45537837      0.06984624