36
 Ord_Energy   -116.9421920
O       8.20591450      -1.0985111      -16.327224
H       7.31462908      -1.2754931      -16.663524
H       8.09335423      -0.8581822      -15.400961
O       8.04048252      -3.5519528      -13.500139
H       8.53840542      -3.7877011      -14.292724
H       7.15638590      -3.9298613      -13.620700
O       9.01399136      -3.7788653      -16.157362
H       8.82571507      -2.8296449      -16.209688
H       9.43415165      -4.0165844      -16.992443
O       4.87281275      -1.4031939      -14.395232
H       5.74545336      -1.1573872      -14.048881
H       4.22835064      -0.9091434      -13.894128
O       6.41916847      -4.5414109      -16.912422
H       7.31045341      -4.3644290      -16.576122
H       6.53172779      -4.7817401      -17.838686
O       7.50058889      -0.9147438      -13.553309
H       7.92915964      -0.4421507      -12.845263
H       7.74280548      -1.8549014      -13.454420
O       5.44478703      -4.2743287      -14.237712
H       5.61415577      -4.5259780      -15.155061
H       5.08297682      -3.3812956      -14.272556
O       6.58459997      -2.0879693      -19.739507
H       7.46869659      -1.7100608      -19.618946
H       6.08667755      -1.8522211      -18.946924
O       7.12449360      -4.7251782      -19.686338
H       6.88227701      -3.7850208      -19.785226
H       6.69592237      -5.1977715      -20.394384
O       9.18029499      -1.3655934      -19.001934
H       9.54210567      -2.2586264      -18.967090
H       9.01092625      -1.1139440      -18.084585
O       5.61109114      -1.8610568      -17.082284
H       5.19093084      -1.6233376      -16.247203
H       5.79936790      -2.8102772      -17.029960
O       9.75226974      -4.2367281      -18.844415
H       8.87962914      -4.4825348      -19.190765
H       10.3967323      -4.7307786      -19.345518