90
 Ord_Energy   -339.0158575
O       3.69816992      -3.2967214      2.39964211
H       4.11887594      -2.5122999      2.02616840
H       2.84098524      -2.9997689      2.73938600
O       2.91663262      -0.0443945      -2.6377252
H       3.13005245      -0.9255489      -2.9782848
H       3.76412095      0.38430401      -2.4487555
O       -1.7186399      0.79145798      1.24887611
H       -2.1338928      1.27717699      1.95609549
H       -0.8015791      0.61514228      1.52635437
O       6.66703111      -1.2195506      -2.7185410
H       6.46656634      -1.4797282      -3.6267364
H       6.31871598      -1.9249277      -2.1590854
O       3.72224581      -5.0271075      0.35453136
H       3.72514504      -4.4636010      1.15210262
H       3.99041056      -5.8989772      0.63034003
O       -0.6386967      -3.8492706      1.46161500
H       -1.2425674      -4.4760729      1.85071669
H       -1.1818616      -3.1487565      1.05599902
O       0.87290196      0.21166364      1.79518932
H       1.45519419      0.98349348      1.74170782
H       1.12574064      -0.3501850      1.04683236
O       -2.0058344      -1.8712006      0.26267511
H       -2.0373497      -0.9872718      0.64692812
H       -1.7602810      -1.7535172      -0.6647865
O       -1.0902937      -1.3407459      -2.3398401
H       -1.6222275      -1.1864564      -3.1309727
H       -0.3548970      -1.9066955      -2.6070166
O       0.94001673      -3.1137179      -3.1652490
H       0.94042272      -3.5825225      -2.3190605
H       1.87482906      -2.9874155      -3.3814885
O       0.52848609      2.82131844      -5.5281264
H       0.20704655      3.27372936      -6.3032120
H       -0.2544613      2.55742239      -5.0114940
O       1.19422723      -2.3265964      3.08340354
H       1.06614601      -1.4066832      2.82077968
H       0.53129334      -2.8373855      2.60367051
O       2.55578879      2.26767529      1.11726577
H       2.22668381      2.38246526      0.21522297
H       3.50224387      2.10963383      1.02747168
O       4.47766794      -1.1326906      0.76898063
H       4.78871738      -0.2221312      0.81068736
H       3.54784743      -1.1080344      0.49901849
O       1.61354680      2.22356381      -1.5554254
H       0.67533166      1.99711323      -1.4836945
H       2.04449736      1.43836495      -1.9154394
O       5.07709816      -3.0274206      -1.1490474
H       4.95978350      -2.3263406      -0.4897428
H       4.74385581      -3.8303885      -0.7317868
O       5.28043893      1.55931748      0.54785357
H       6.08369555      1.97483823      0.85171392
H       5.35246119      1.48032234      -0.4184176
O       5.14641168      2.82400041      -4.3502381
H       4.24480720      3.14313892      -4.1606662
H       5.65471412      3.58140497      -4.6275320
O       5.38651827      1.12085378      -2.1536847
H       5.42600201      1.73705650      -2.8956672
H       5.92925905      0.34272172      -2.3591763
O       3.62708876      -2.5679571      -3.4650271
H       4.12196857      -2.7969757      -2.6641042
H       4.26953954      -2.4474618      -4.1753072
O       1.89198258      -1.2575896      -0.2887132
H       2.11572415      -0.8778160      -1.1454206
H       1.68161494      -2.1915325      -0.4155796
O       -2.2832387      -0.7430329      -4.8219312
H       -3.0137699      -1.1273337      -5.2984733
H       -1.4676965      -1.1285086      -5.1915436
O       2.62510334      3.57936921      -3.7792867
H       1.91439113      3.44555390      -4.4179788
H       2.26960683      3.28438133      -2.9302771
O       -1.5711989      1.91985424      -4.1066782
H       -1.4617600      1.84729884      -3.1497759
H       -1.8994601      1.06219813      -4.4048720
O       5.64394444      -1.9131240      -5.2915180
H       5.31131956      -1.0408204      -5.5714389
H       6.02207264      -2.3264927      -6.0624633
O       0.08956261      -1.8034108      -5.5535122
H       0.35364916      -2.4053244      -4.8462780
H       0.74014683      -1.0875632      -5.5540835
O       -0.9780931      1.28072260      -1.4245397
H       -1.3241577      1.25466498      -0.5247379
H       -0.9316334      0.36073608      -1.7250127
O       4.59797768      0.48749498      -5.9086663
H       3.63448012      0.43787316      -5.8488387
H       4.85031537      1.30166453      -5.4579421
O       1.86667469      0.36571125      -5.2666251
H       2.13722878      0.34320565      -4.3400364
H       1.41058518      1.20565398      -5.4091269
O       1.27308887      -3.9893575      -0.5633870
H       2.07816983      -4.4338642      -0.2684434
H       0.61976558      -4.0513386      0.14651405