48
 Ord_Energy   -165.6442410
O       -4.6221408      0.06307498      -1.8888036
H       -4.6556038      1.02235758      -1.7783303
H       -3.7572608      -0.1239669      -2.2762534
O       -4.5728368      -1.0181790      0.60903341
H       -5.2471704      -1.6769999      0.75124103
H       -4.6815257      -0.6952676      -0.3038365
O       -4.0676245      1.64597845      1.40905535
H       -4.3304925      0.72092903      1.32854164
H       -4.1741361      2.03102851      0.52610499
O       -3.2185301      7.99773407      0.62236196
H       -3.6979587      8.82044697      0.66716588
H       -3.1088910      7.68408823      1.53796220
O       0.05461210      6.31357574      2.81885839
H       -0.0890463      5.37722492      2.60326314
H       0.80253828      6.34639359      3.41032314
O       -0.7408806      3.79010773      2.03052187
H       -0.6862568      2.84125662      1.85864711
H       -1.6787734      3.97359300      2.19402409
O       -1.7374687      -1.2772867      0.09514990
H       -2.6708521      -1.3379024      0.33599669
H       -1.7251958      -1.1017866      -0.8534858
O       -4.0972137      2.75550246      -1.1706198
H       -3.1676578      2.55698729      -1.3546832
H       -4.1354451      3.70747042      -1.0146861
O       -3.5253822      5.36940575      -0.3461162
H       -3.5706384      6.31230640      -0.1453593
H       -2.5939877      5.18054819      -0.5329907
O       -0.7819028      4.77977848      -0.6216344
H       -0.5408611      5.71399879      -0.5413436
H       -0.6793679      4.40761662      0.26558721
O       -1.2898914      1.20272923      1.18890762
H       -2.2233362      1.37663686      1.37723994
H       -1.2508047      0.27346945      0.92075199
O       -1.8727942      -0.2385881      -2.6166999
H       -1.6006612      0.64616394      -2.3209500
H       -1.3737726      -0.4284950      -3.4072833
O       -3.4809258      4.25685835      2.23846436
H       -3.5938680      4.65007687      1.36013329
H       -3.8172566      3.35388851      2.17696357
O       -0.4247582      7.38468695      0.16671410
H       -1.3211011      7.73597193      0.23504652
H       -0.1616369      7.16428041      1.06929946
O       -1.3390578      2.19164634      -1.4281426
H       -1.0314508      3.10636091      -1.3809267
H       -1.2469158      1.82732189      -0.5347295
O       -2.7499012      6.87121058      3.05908799
H       -3.1097550      5.97623253      3.00031304
H       -1.7922762      6.76792765      3.12695837