54
 Ord_Energy   -189.7428280
O       4.42198372      -1.5710876      1.06319821
H       4.58417416      -0.8617835      0.44683152
H       3.94115639      -2.2616949      0.57257664
O       2.69839358      -5.2158489      7.64527941
H       1.91308117      -4.6547026      7.60412025
H       2.51032925      -5.9722852      7.07648230
O       3.51268101      -7.0115399      1.62632871
H       3.71367669      -6.5654039      2.46605849
H       4.18715000      -6.7011046      1.01067829
O       3.40773559      -1.7368444      3.69097376
H       2.75737429      -2.4299576      3.49460101
H       3.76504588      -1.4782578      2.83316326
O       0.08079786      -5.0118799      4.93476105
H       0.63507766      -4.5414853      4.29323244
H       0.06372522      -4.4544320      5.72211742
O       1.74135828      -8.5283355      3.14680004
H       1.73459256      -9.4596738      2.93808818
H       2.37882829      -8.1146879      2.54225016
O       2.62366867      -1.7789801      6.41096640
H       3.40033817      -2.2009041      6.79830837
H       2.85461450      -1.5835853      5.49387789
O       6.17173767      -3.6656079      1.94715393
H       5.69624901      -2.8772335      1.65476120
H       6.09798908      -3.6736321      2.90868402
O       -0.4071281      -6.6362028      2.59880090
H       -0.4785077      -6.1249451      3.41431475
H       0.18949235      -7.3665895      2.80274487
O       1.97023344      -6.9712514      5.54936886
H       1.24631596      -6.3476715      5.38187838
H       1.89834321      -7.6506404      4.86867809
O       5.41564083      -5.5672054      0.15017360
H       5.74765968      -4.9480986      0.82538974
H       6.14939404      -5.7610888      -0.4270780
O       1.88341284      -3.9367821      3.12941170
H       1.61391258      -4.2741036      2.26595592
H       2.59808087      -4.5191507      3.42558169
O       3.87825155      -5.6950736      3.97380137
H       3.36518836      -6.0952634      4.68777752
H       4.47227383      -5.0224194      4.32967329
O       5.37336159      -3.4859259      4.69014359
H       4.74813938      -2.8169899      4.37335682
H       5.32520151      -3.4687714      5.65435600
O       0.55514926      -3.3697836      7.17719460
H       1.23093820      -2.7360022      6.87638283
H       -0.0067932      -2.9017608      7.78902006
O       3.29359126      -3.6646101      -0.2701792
H       2.48536372      -4.1459116      -0.0537768
H       3.99628496      -4.3266906      -0.2763325
O       1.31916320      -5.3832855      0.81722373
H       2.05919838      -5.9830007      0.98754776
H       0.56160253      -5.7735819      1.27713954
O       4.75131941      -3.4533495      7.41601610
H       5.23202276      -3.3972632      8.23743439
H       4.07379961      -4.1433048      7.53325748