63
 Ord_Energy   -227.1315310
O       -1.7597316      -2.3047599      0.80916530
H       -1.2403123      -2.7714936      0.14388281
H       -2.5491399      -1.9790816      0.35295442
O       1.14907789      2.45805144      -3.4297909
H       1.15430963      2.80243564      -2.5330996
H       0.32117641      2.75513697      -3.8399269
O       1.22939789      3.12747288      -0.5765932
H       1.02573931      2.18903255      -0.4093321
H       2.13971806      3.26259661      -0.3251601
O       -4.7171716      0.32834947      -4.1721797
H       -4.7956056      -0.5608025      -3.8112173
H       -4.9731845      0.93955445      -3.4657154
O       -1.2451442      3.99687648      0.33723646
H       -1.2216588      4.91128397      0.61006743
H       -0.3522678      3.77326894      0.03016166
O       -0.8174953      -0.2190641      2.20351672
H       -0.5644301      -0.4883330      3.08182120
H       -1.1611595      -1.0135102      1.75285029
O       -1.2992088      3.14811087      -4.4618353
H       -1.8085936      3.24099922      -3.6447196
H       -1.7798767      2.50413990      -4.9946889
O       -4.7695231      -2.2790694      -2.9654109
H       -3.8666610      -2.6116194      -3.1261212
H       -5.3692660      -2.9819800      -3.1985559
O       -2.7077972      1.83821058      1.57185233
H       -2.1983823      2.57146406      1.20866990
H       -2.0720019      1.16141737      1.83409107
O       -2.5708503      3.00578785      -1.9777718
H       -2.1995306      3.45067501      -1.2093061
H       -2.2910518      2.07833123      -1.9205248
O       0.42839146      0.58548045      -0.1563877
H       0.12416387      0.31976023      0.71991372
H       -0.3353498      0.50851935      -0.7519587
O       1.49924302      -1.4894884      -1.7403018
H       1.26144421      -0.7800177      -1.1291911
H       1.62965846      -1.0665290      -2.5975775
O       1.64719093      -0.0595926      -4.1998510
H       1.51543939      0.86615890      -3.9222111
H       2.32747793      -0.0529271      -4.8672151
O       -1.0838533      -0.6826624      -4.3194146
H       -1.5653573      -0.1026459      -4.9241857
H       -0.1413642      -0.4885535      -4.3927755
O       -2.7032413      1.03562498      -5.7949752
H       -3.0275514      1.07944512      -6.6899609
H       -3.4671976      0.80981219      -5.2312650
O       -1.7440042      0.36188367      -1.7988851
H       -1.5342383      -0.0050730      -2.6672072
H       -2.4585166      -0.1634517      -1.4162566
O       -0.2603684      -3.5096845      -1.2876402
H       0.39338866      -2.8131995      -1.4756802
H       0.22565421      -4.3278436      -1.2224630
O       -3.8147082      -1.1225845      -0.6179341
H       -4.3797149      -0.4478491      -0.2207876
H       -4.2794313      -1.5156747      -1.3675744
O       -5.1108455      1.02921784      0.59859729
H       -4.2722640      1.36206985      0.96603823
H       -5.7664461      1.12064826      1.28459013
O       -5.2097759      2.07414985      -2.0803637
H       -4.3657302      2.54700518      -2.0876805
H       -5.3093304      1.75572610      -1.1764375
O       -2.2046337      -3.0117092      -3.3227596
H       -1.7895454      -2.2636191      -3.7760653
H       -1.5939527      -3.2630465      -2.6203894