24
 Ord_Energy   -68.6403809
O       1.45869708      1.52980411      -1.8504549
H       1.59339476      0.95646822      -2.6184446
H       0.51040590      1.70067477      -1.8144767
O       1.46427822      -0.3858040      -3.8946106
H       1.99739313      -1.1669107      -4.0278387
H       0.60462052      -0.7042692      -3.5805692
O       0.42140272      -2.1597390      -0.3899061
H       1.00300455      -1.4455080      -0.0970021
H       0.00400480      -1.8436180      -1.2000504
O       -0.9008114      0.77622551      1.05261862
H       0.05504624      0.64141232      1.03404176
H       -1.2808569      -0.0846978      1.28083587
O       -1.6637755      -1.8789384      1.41049182
H       -1.6814810      -2.5686290      2.06896186
H       -0.9368440      -2.1053507      0.80636823
O       -0.9873958      -1.0405802      -2.6648447
H       -1.2050516      -0.1746798      -2.2824947
H       -1.8174295      -1.4648164      -2.8692350
O       1.84529686      0.17442258      0.47386509
H       1.80922019      0.69287842      -0.3495248
H       2.67978787      0.37511706      0.88823438
O       -1.4230738      1.44511616      -1.5043628
H       -1.3047970      1.24966359      -0.5564156
H       -2.0310542      2.17652774      -1.5630042