18
 Ord_Energy   -45.7182083
O       27.9192963      5.88851023      26.6528797
H       28.2739029      6.68109894      27.0448322
H       27.0330753      6.12423658      26.3269367
O       25.7850342      2.69712448      24.7594376
H       26.6470814      2.84535885      25.1878185
H       25.7640972      1.78536797      24.4812374
O       24.1049633      4.04285622      26.6423187
H       24.6127472      3.50915217      26.0140972
H       24.2399673      3.63429832      27.4951954
O       28.1421146      3.25811243      25.9766521
H       28.1103649      4.19472075      26.2386723
H       28.9919052      2.93304825      26.2599945
O       25.4196167      6.35304213      25.6744385
H       24.8472614      5.69865036      26.0971069
H       25.4517021      6.09808588      24.7425404
O       25.6564236      5.06811285      23.1654663
H       25.6802368      4.21458435      23.6218338
H       26.4250660      5.07828474      22.5983448