81
 Ord_Energy   -300.1941049
O       -2.5563156      -1.8047854      -1.1408953
H       -2.0145939      -2.5925849      -1.0208584
H       -1.9903652      -1.0420329      -0.9372175
O       0.22064898      -1.6300886      -4.1512925
H       0.97351385      -1.6726724      -4.7553462
H       0.55248758      -1.9021236      -3.2848366
O       -0.6074449      1.42618821      2.79610909
H       -1.0912762      1.96018407      2.15024177
H       0.32510004      1.51701418      2.56907406
O       -2.0453860      -0.8416531      3.12238273
H       -2.2582241      -0.9280948      4.04811771
H       -1.5071529      -0.0340962      3.03619464
O       2.53230902      -1.5119247      -5.7465423
H       2.27462130      -0.6767537      -6.1781212
H       2.94239978      -2.0546153      -6.4136940
O       1.35961959      -2.2981427      -1.6868729
H       0.73878215      -2.9762449      -1.3939010
H       1.46789323      -1.7093180      -0.9250149
O       -2.0820330      -0.6905495      -5.3805861
H       -2.7839910      -0.7166706      -4.7213019
H       -1.3331870      -1.1624908      -4.9896851
O       -3.9602575      -0.6457332      1.03348595
H       -3.3487355      -0.7302721      1.77631121
H       -3.5846559      -1.1720439      0.31672904
O       2.54903331      1.93177885      -2.8502534
H       2.94530049      1.05115804      -2.9397913
H       2.58039268      2.37803000      -3.7060207
O       -1.1100410      1.19805861      -7.0584417
H       -1.5004028      0.54443724      -6.4515730
H       -1.6084995      1.14600568      -7.8697972
O       -4.1093764      1.87766462      -2.5812868
H       -4.3357758      1.88344435      -1.6436840
H       -4.1222760      0.95235285      -2.8553020
O       -0.4123662      3.57370821      -5.6649259
H       -0.9641779      3.56537505      -4.8715700
H       -0.7142915      2.82405111      -6.1944626
O       -1.7625964      3.07609279      -3.2812659
H       -2.6489268      2.73419600      -3.0939971
H       -1.1672890      2.31051316      -3.3027905
O       -0.7300385      -3.8895753      -0.5606838
H       -0.5924374      -3.5114528      0.32831698
H       -0.8052841      -4.8333076      -0.4505474
O       3.32729101      -0.6937117      -3.1339450
H       2.80813067      -1.3068262      -2.6005676
H       3.20459190      -0.9841241      -4.0467581
O       -1.9511947      2.65156798      0.69154342
H       -1.6314432      3.35592943      0.11416521
H       -2.8962744      2.52663782      0.53573425
O       2.25322284      3.21363816      -5.3430555
H       2.72545444      3.95488185      -5.7131921
H       1.30338361      3.41465002      -5.4295118
O       -0.2823179      -2.6165796      1.76855061
H       0.38342799      -1.9790098      1.47406145
H       -0.9269805      -2.1038364      2.27005014
O       -4.5987307      1.85837272      0.23557753
H       -5.4253634      2.12181193      0.63089274
H       -4.4205472      0.94840049      0.53547492
O       1.67353251      3.08576155      -0.4613431
H       0.88399992      3.57925298      -0.7066346
H       2.04884654      2.72778173      -1.2778802
O       1.69312573      0.81415593      -6.7845960
H       0.74576500      0.91291847      -6.9430745
H       1.97678675      1.62000240      -6.3367242
O       2.07237989      1.70253288      1.81743756
H       1.94141203      2.23644960      1.01212103
H       2.86116892      2.03184979      2.23880782
O       -0.9790003      0.35846694      -0.6113301
H       -0.6479680      0.62734508      -1.4803754
H       -1.3154466      1.14052605      -0.1589180
O       1.29676064      -0.6659155      0.53809322
H       0.47570860      -0.2884430      0.18302879
H       1.73292630      0.05132412      1.01020885
O       -4.0037229      -0.8891696      -3.2766482
H       -3.4990281      -1.2681562      -2.5374521
H       -4.7881969      -1.4240639      -3.3733660
O       -0.7945467      4.43209813      -1.1415248
H       -1.1481170      4.01001607      -1.9438294
H       -0.8448634      5.37428351      -1.2798523
O       -0.0284337      0.97046290      -3.1003824
H       0.01808374      0.12689087      -3.5647876
H       0.87500131      1.30062352      -3.0047822