69
 Ord_Energy   -252.3047791
O       17.9992368      9.89737005      -13.522007
H       18.3065887      9.01403549      -13.752045
H       17.6235762      9.83080378      -12.631277
O       15.3266827      4.72072532      -16.529185
H       16.0221890      5.40305105      -16.529490
H       15.5565595      4.09312630      -17.209106
O       12.3927746      7.98375837      -13.308955
H       13.2950553      8.08863936      -13.648814
H       12.1510512      7.06903723      -13.499187
O       12.0971107      6.03714240      -9.6624422
H       12.9047607      5.62480957      -9.3322294
H       12.3433482      6.93657233      -9.9151102
O       12.9580269      6.32218897      -16.482775
H       13.7457896      5.77394343      -16.583773
H       12.4992252      5.98158018      -15.705225
O       16.6661788      11.3718659      -15.323703
H       17.1997702      12.1085824      -15.607876
H       17.2012003      10.8652383      -14.682370
O       17.1664750      6.69127305      -16.482839
H       16.7606458      7.54547108      -16.686372
H       17.7626033      6.84174280      -15.740054
O       14.6103385      4.72916957      -9.1444047
H       14.8583549      4.12962057      -8.4460623
H       14.4103746      4.18319598      -9.9260693
O       15.7583357      9.07729956      -16.708594
H       14.8457562      9.14262680      -17.020476
H       16.0377578      9.94069033      -16.377706
O       11.1483858      4.29908725      -11.524194
H       11.4110934      4.95872006      -10.857204
H       10.3283189      3.91697001      -11.223802
O       13.8571416      3.33727090      -11.352147
H       12.9101022      3.50408568      -11.434854
H       14.2422176      3.56543877      -12.208546
O       14.7826824      4.41757307      -13.784224
H       14.9959443      4.37745503      -14.724456
H       15.3641802      5.09036558      -13.401211
O       13.1350418      8.45170356      -10.689457
H       13.4197925      9.37224431      -10.647241
H       12.7997769      8.30301565      -11.586254
O       15.0025468      8.43033694      -14.077688
H       14.9665749      9.33478021      -13.742485
H       15.2561680      8.49825783      -15.005977
O       18.6362344      7.13734430      -14.075984
H       19.4197338      6.70552327      -13.744548
H       17.8911238      6.81801987      -13.538081
O       12.2557406      10.2873631      -14.930200
H       12.0524400      9.54010240      -14.350736
H       12.4569438      9.89563155      -15.788883
O       14.4607761      11.1873207      -13.583630
H       13.6594122      10.9917737      -14.095497
H       15.1645874      11.4245425      -14.198767
O       12.1245388      5.30276188      -13.956435
H       11.6541010      4.92365759      -13.203693
H       13.0411124      4.99830657      -13.880398
O       13.0297144      8.89673066      -17.315609
H       12.5458250      8.96048835      -18.134891
H       12.9633726      7.96879090      -17.023951
O       14.2638266      11.0414914      -10.879808
H       14.0539254      11.8870245      -10.492003
H       14.3068207      11.1766056      -11.842919
O       16.3371005      6.46567664      -12.760960
H       15.8765539      7.17420824      -13.239548
H       16.1508343      6.61079412      -11.824317
O       16.7611600      9.61867459      -11.044600
H       16.5304990      8.76355707      -10.662386
H       15.9956641      10.1827229      -10.883977
O       15.5674509      7.14133143      -10.211184
H       15.3562776      6.32377955      -9.7437918
H       14.7224321      7.58611407      -10.374976