33
 Ord_Energy   -104.1392970
O       -8.3353395      0.17493975      12.2433777
H       -7.5580287      0.70357174      12.0363836
H       -8.0430145      -0.7456652      12.2063580
O       -5.8920283      -2.1296858      14.7523746
H       -6.3580045      -1.4649415      15.2819672
H       -6.4374380      -2.3004367      13.9770107
O       -3.8246352      1.41512120      14.1721144
H       -3.6044647      0.47428346      14.1296120
H       -4.3661036      1.59303284      13.3964872
O       -3.4656941      -1.3542844      13.9051466
H       -4.3106308      -1.6670090      14.2804098
H       -2.7958540      -1.9774589      14.1704578
O       -5.3707113      2.17268634      16.2791710
H       -4.7328758      1.90210068      15.5949860
H       -4.8687567      2.58072352      16.9791088
O       -5.8569989      1.82604003      12.0459862
H       -6.3041238      2.26271749      12.7947607
H       -5.7554230      2.48857045      11.3660965
O       -7.1165041      -2.3594121      12.1396542
H       -6.3113069      -1.9083789      11.8281708
H       -7.2259798      -3.1350617      11.5961199
O       -7.0942707      2.94281745      14.1729670
H       -6.5420222      2.83084822      14.9578810
H       -7.9162082      2.47159719      14.3623857
O       -4.9109315      -0.8740136      11.5135860
H       -5.1761651      0.04626146      11.6245680
H       -4.2955970      -1.0607925      12.2359371
O       -9.2440643      1.15549326      14.6086731
H       -9.0175180      0.75446451      13.7505388
H       -10.195290      1.16641545      14.6662798
O       -7.1464610      -0.0907234      16.1352291
H       -6.5491943      0.64956015      16.2965698
H       -7.9227790      0.28799877      15.7059984