21
 Ord_Energy   -56.7412148
O       32.3070183      4.24709272      -3.6906693
H       31.3722973      4.00080538      -3.6189324
H       32.8008804      3.59391427      -3.1818144
O       32.9756851      3.59987736      -6.2384176
H       32.9131775      4.33559513      -6.8410449
H       32.7328529      3.93645430      -5.3560023
O       29.7030010      3.28264499      -3.8217189
H       28.8018818      3.51033521      -4.0344071
H       29.9951630      2.66919875      -4.5168585
O       30.8817787      1.63884985      -5.7103385
H       31.3102760      1.04050446      -5.0809683
H       31.5755882      2.22083306      -6.0407161
O       34.9452896      1.91263485      -5.2296485
H       34.9309120      1.09203947      -5.7188558
H       34.3298721      2.50611067      -5.6885376
O       33.9397087      2.07589960      -2.6865243
H       34.6153297      2.13265109      -2.0158717
H       34.3999023      2.02415657      -3.5427892
O       32.0920868      0.14990890      -3.6447327
H       31.5288162      -0.1834127      -2.9485158
H       32.6918640      0.77785045      -3.2169134