54
 Ord_Energy   -190.2467800
O       -7.5146656      2.09105110      -6.9014921
H       -6.8999919      1.41739488      -6.6218524
H       -7.7997741      2.56023860      -6.0986523
O       -11.513718      7.80371952      -7.8677930
H       -10.610660      7.94313526      -7.5525341
H       -11.974075      7.35321140      -7.1506362
O       -13.529601      4.58712292      -8.1662521
H       -13.196642      3.68660259      -8.0632410
H       -13.037446      4.98827028      -8.8926916
O       -8.3714151      3.59474421      -4.7926540
H       -7.8203640      4.36349583      -4.5753502
H       -9.0538587      3.50637221      -4.1161375
O       -12.494550      1.97159910      -7.5152988
H       -12.940362      1.17809534      -7.8007049
H       -11.574082      1.89870608      -7.8224167
O       -9.9437255      1.88954079      -8.4157714
H       -9.1315364      1.82104242      -7.9013638
H       -9.8764028      2.72784257      -8.8947897
O       -10.567591      3.51558828      -3.0598585
H       -10.771213      3.06398916      -2.2452509
H       -11.259871      3.26859355      -3.7006120
O       -12.483937      5.79453516      -5.9576692
H       -13.031122      5.45726585      -6.6840624
H       -11.576233      5.51359940      -6.1664948
O       -9.8945131      5.13494301      -6.5957303
H       -9.3792400      4.59108639      -5.9891834
H       -9.5118818      6.02304316      -6.5991001
O       -7.0297060      4.44221830      -8.4836177
H       -7.0740451      3.61036301      -7.9972162
H       -7.8738436      4.51564646      -8.9494619
O       -8.9540243      7.91546965      -3.8896205
H       -9.7396316      7.36647940      -3.7154862
H       -8.9703302      8.62789440      -3.2564513
O       -11.103036      6.31214952      -3.5267570
H       -11.725003      6.25825548      -4.2636003
H       -10.914320      5.40209246      -3.2676932
O       -12.466056      3.10535741      -4.9216318
H       -12.676165      4.01290369      -5.1713361
H       -12.465354      2.60985923      -5.7501735
O       -11.912354      6.13540936      -10.000481
H       -11.765759      6.79588985      -9.3001632
H       -12.247513      6.60936880      -10.756898
O       -9.7198534      4.52641106      -9.2809553
H       -9.8154411      4.70064116      -8.3301553
H       -10.411814      5.04119110      -9.7102432
O       -8.9391059      7.77085638      -6.6884250
H       -8.9369936      7.96172762      -5.7401905
H       -8.0333643      7.53890467      -6.9329409
O       -6.9855713      5.91297674      -4.4518384
H       -6.6636195      6.18498325      -5.3206725
H       -7.5748496      6.61694002      -4.1534614
O       -6.3839716      6.70053244      -7.1438283
H       -5.5728173      7.05258512      -7.5000929
H       -6.5792222      5.88789368      -7.6444211