51
 Ord_Energy   -177.8076630
O       -2.6992802      -2.4714827      1.40293002
H       -2.7774970      -2.7710907      0.48844901
H       -3.3355312      -2.9810493      1.91840565
O       0.78530252      -3.6694493      0.51435810
H       0.09083681      -4.3092985      0.74202740
H       0.62457985      -2.9151852      1.09129167
O       -1.0337674      -5.5553693      1.41004932
H       -0.5487548      -6.3472027      1.14148033
H       -1.9724625      -5.7573719      1.34100974
O       -3.7232155      -6.4135036      1.52765656
H       -3.4384069      -7.0134625      2.22991014
H       -4.1138753      -5.6416721      1.95806706
O       -0.3434372      -4.1012201      -2.0009279
H       0.20564887      -3.8704888      -1.2387119
H       -0.3311678      -5.0638032      -2.0655708
O       -0.0369827      -8.2818441      3.10545397
H       0.61568230      -7.6795845      3.48167872
H       0.14688462      -8.3027963      2.15576172
O       -0.2826022      -1.8673378      2.45860338
H       -1.1659245      -2.0322661      2.07861519
H       -0.2323539      -0.9335780      2.64146304
O       0.47084352      -7.6999177      0.42564070
H       0.13679840      -7.5449500      -0.4664398
H       1.26983285      -7.1612954      0.54506999
O       -2.7633168      -5.2453923      4.75894308
H       -1.8786217      -4.8908343      4.59825802
H       -2.7224218      -6.1813855      4.52400541
O       -2.8609166      -3.3590204      -1.2998443
H       -1.9518189      -3.5608758      -1.5856641
H       -3.2428278      -2.8069038      -1.9778329
O       -0.7449260      -6.9658198      -2.0096190
H       -1.6576300      -6.7601780      -1.7379759
H       -0.8065340      -7.4550809      -2.8262076
O       2.43244243      -5.9128904      1.14355505
H       2.35230160      -5.9837594      2.10271931
H       2.05695415      -5.0547399      0.90621781
O       -3.2337226      -6.1976018      -1.2127121
H       -3.2309835      -5.2334008      -1.2661377
H       -3.5336163      -6.4079256      -0.3185000
O       -0.2838890      -4.3657498      3.76871729
H       -0.5901640      -4.8383779      2.97641134
H       -0.2025732      -3.4423286      3.50164819
O       1.76230919      -6.1941032      3.95182920
H       1.09144688      -5.4925732      3.99597716
H       2.30296040      -6.1075162      4.73305178
O       -4.4472498      -4.1012282      2.97094107
H       -3.8808662      -4.4493980      3.68332767
H       -5.2605094      -3.8155782      3.37853122
O       -2.6576752      -7.8975448      3.69257140
H       -2.9839212      -8.6980323      4.09540558
H       -1.7178605      -8.0529689      3.49089170