33
 Ord_Energy   -104.1638180
O       -5.8853769      -0.4344241      12.3627367
H       -5.6543450      -0.8958075      11.5615664
H       -5.6059308      0.49271390      12.2447271
O       -7.6809954      -0.4698897      16.9480934
H       -6.7778949      -0.7614576      17.1345730
H       -7.7844042      -0.5025256      15.9896688
O       -4.8839168      1.87110507      17.7829266
H       -5.8225331      2.07218695      17.8836555
H       -4.8272419      0.90746456      17.7902260
O       -4.7470850      2.37397337      15.0580854
H       -5.7011847      2.48932576      14.9533453
H       -4.6061205      2.33092070      16.0146904
O       -7.3407683      3.86571407      12.4827232
H       -7.4470353      4.81186152      12.5503635
H       -7.5296087      3.51328945      13.3669558
O       -7.6038465      2.54261494      14.9204044
H       -7.7994155      1.64152455      14.6298971
H       -7.7303571      2.55684686      15.8776627
O       -5.1401853      2.15418315      12.2605200
H       -5.8676748      2.78532457      12.1667957
H       -4.7498536      2.33627915      13.1251526
O       -4.3528866      -0.3996037      14.8025026
H       -4.7742853      -0.6082155      13.9632893
H       -4.3922567      0.56532317      14.8743067
O       -8.0286684      -0.1437371      14.1006699
H       -8.8246755      -0.4163290      13.6491566
H       -7.2951860      -0.2986321      13.4847889
O       -7.7723217      2.13660979      17.6983204
H       -7.8092484      1.18099451      17.5090961
H       -8.3813056      2.30102682      18.4129467
O       -4.9449443      -1.0011918      17.3664131
H       -4.6845684      -0.8748217      16.4357052
H       -4.3714366      -1.6730645      17.7241917