54
 Ord_Energy   -189.7705080
O       4.65965033      -1.0878871      1.98785222
H       4.07954264      -1.5693451      1.37121296
H       4.88400030      -0.2638134      1.56367815
O       2.79861569      -6.1986045      7.50348902
H       2.53175211      -6.7438583      6.75223684
H       2.07347679      -5.5779032      7.64718342
O       3.14682674      -6.3099126      1.07138550
H       3.84156656      -5.9062895      0.53758848
H       3.45288420      -6.2205205      1.98816407
O       3.77252913      -1.8882834      4.53986692
H       4.11348438      -1.4285143      3.76356125
H       3.06835675      -2.4641060      4.20148230
O       0.11886463      -4.9439635      5.02550077
H       0.18631028      -4.6481652      5.94143867
H       0.77358901      -4.4258260      4.53035545
O       1.15852022      -7.8699331      2.45893645
H       1.82136297      -7.5316896      1.84413123
H       0.40896383      -7.2662553      2.39079046
O       3.06258178      -2.5996649      7.17965698
H       3.29026914      -2.1808376      6.33971596
H       3.80121946      -3.1820328      7.39592266
O       6.22209835      -3.4940886      2.15909743
H       6.18332720      -3.7732050      3.08130836
H       5.81849957      -2.6170649      2.13155198
O       -0.8580927      -5.7681465      2.54885459
H       -1.8041386      -5.8892254      2.51273894
H       -0.6492424      -5.4938745      3.45654726
O       1.83296430      -7.2130398      5.06846762
H       1.63992155      -7.6517086      4.22691917
H       1.18911397      -6.4942479      5.13318491
O       5.17448521      -4.6987547      -0.0499479
H       5.86154985      -4.8265204      -0.6985868
H       5.60665894      -4.3480320      0.74951118
O       2.05378413      -3.7442495      3.50102663
H       2.70378900      -4.4594488      3.56610370
H       1.70894694      -3.7810373      2.60032940
O       3.84292102      -5.8608789      3.68915987
H       4.51392317      -5.3674807      4.17732573
H       3.30195284      -6.3754243      4.30294847
O       5.55670595      -4.0443639      4.89371347
H       5.54209661      -4.2836265      5.82901573
H       5.00620842      -3.2519686      4.80951023
O       0.83222610      -4.0908513      7.60054255
H       0.36851880      -3.7644534      8.36713123
H       1.58004594      -3.4852838      7.44695759
O       3.22647643      -2.6182508      0.23923175
H       3.86312008      -3.3055121      0.00243336
H       2.38467813      -3.0737454      0.35728049
O       1.11270022      -4.3955988      0.96787995
H       1.77666509      -5.1016345      0.91667610
H       0.32155573      -4.7988996      1.34394598
O       5.03597403      -4.6646313      7.57514524
H       4.28734779      -5.2877969      7.56423759
H       5.56295013      -4.8810939      8.33960533