63
 Ord_Energy   -226.9976960
O       3.88034225      1.83285153      0.92583603
H       4.83142185      1.98759174      0.98401415
H       3.46095419      2.66500664      0.67138785
O       0.18432315      1.18395483      0.53656483
H       0.18889605      2.08113742      0.88980371
H       0.45424867      1.23981762      -0.3883014
O       5.58083057      3.07570195      -2.7814867
H       5.73407078      2.15580773      -2.5001871
H       6.02015972      3.17920995      -3.6216480
O       1.87735832      3.31019831      3.83794689
H       2.71846318      3.79032230      3.85429978
H       2.11562204      2.37749290      3.76403856
O       7.42183018      -0.2785910      0.35092756
H       8.20961857      -0.8128206      0.30482149
H       6.80903244      -0.7328249      0.95879018
O       2.80087042      0.72827244      3.21242523
H       2.10477591      0.11570595      2.94542432
H       3.17110705      1.10742378      2.39938688
O       6.65020609      2.24972510      1.22746694
H       7.02317429      1.40471864      0.94351047
H       6.70225239      2.29488611      2.19026613
O       4.65519333      5.87669849      1.22118950
H       4.83750916      6.81010628      1.15790665
H       5.27390051      5.42619562      0.61681122
O       6.46595287      2.39580607      4.01540661
H       7.10740614      2.56053805      4.70278645
H       6.00055027      1.57890177      4.25646496
O       5.90700674      0.51878768      -1.9533468
H       5.01876640      0.20087761      -1.7371598
H       6.47949219      0.20538104      -1.2446432
O       0.83467704      -0.9055749      2.11946249
H       0.56692499      -0.1852856      1.51937330
H       0.03506391      -1.3493835      2.38735628
O       2.76546907      3.34107733      -2.4208352
H       3.70784688      3.26302910      -2.6102843
H       2.70111656      3.76369643      -1.5522424
O       5.04758406      0.07395108      4.53916788
H       4.19268179      0.28924173      4.12351894
H       4.85443306      -0.4454553      5.31530857
O       6.26853228      4.45993710      -0.3934381
H       6.52946854      3.71085024      0.16154201
H       6.03658009      4.08242846      -1.2501076
O       5.70161486      -1.3816742      2.08771276
H       4.84384441      -1.6718090      1.74083912
H       5.53175545      -0.9681162      2.93851376
O       2.63083911      4.23844099      0.19745590
H       1.80992174      4.21321917      0.70549071
H       3.21638060      4.90089464      0.58523774
O       3.35470319      -0.0794163      -1.0203924
H       2.57327724      0.22776596      -1.4934818
H       3.52553535      0.57758153      -0.3270054
O       4.39872122      4.45037127      3.69075012
H       5.11857414      3.81686282      3.77653074
H       4.56293440      4.95034552      2.88161922
O       3.24840045      -2.0176422      0.98602080
H       3.29017305      -1.4799668      0.18227123
H       2.40633082      -1.7874382      1.39337122
O       0.32879767      3.80580950      1.70732820
H       -0.4291399      4.33207464      1.94548178
H       0.83645368      3.65239429      2.52621436
O       1.12193680      1.22628617      -2.1531102
H       1.68775201      2.00406718      -2.3118248
H       0.61489642      1.08755040      -2.9480941