12
 Ord_Energy   -20.1100388
O       -5.7977786      9.92462063      12.4022264
H       -6.5371375      9.86146355      13.0055494
H       -5.5854687      10.8659344      12.3624992
O       -3.7642953      11.6936569      12.8294630
H       -3.6390206      11.9600210      13.7532902
H       -3.9972591      10.7599821      12.8391895
O       -1.4321802      13.2427683      12.8120775
H       -2.1774225      12.6749210      12.5575686
H       -1.4058412      13.9414854      12.1621275
O       -2.7975511      12.7860346      15.2118025
H       -2.1703972      13.0862112      14.5337219
H       -2.2642369      12.5217218      15.9578657