33
 Ord_Energy   -104.2316280
O       -3.2658631      0.78823453      12.6510153
H       -3.4624633      -0.1602520      12.5657320
H       -2.5452857      0.97512209      12.0548258
O       -5.4310240      3.15925717      15.1004171
H       -4.6066246      2.74364424      15.3863478
H       -5.6866993      2.65784240      14.3156290
O       -4.1217532      -1.8144745      12.5711908
H       -4.9014492      -1.7230554      13.1428509
H       -4.2072572      -2.6596124      12.1382446
O       -6.1896214      -1.1964345      14.2958241
H       -7.1327700      -1.1995446      14.5010023
H       -5.7227435      -1.0240175      15.1262779
O       -8.6674194      1.76182055      13.9945803
H       -7.8576231      1.75919461      13.4675226
H       -8.4889364      2.32966924      14.7558899
O       -7.4617171      0.47789165      17.2271233
H       -8.0367507      0.00251296      16.6153545
H       -7.5991978      1.41639233      17.0420818
O       -7.8031625      3.14671063      16.3458176
H       -8.0193615      3.98751688      16.7382908
H       -6.9096317      3.23438644      15.9636745
O       -3.2632718      1.45781040      15.5002155
H       -3.1737813      1.20098925      14.5744295
H       -3.7765588      0.75913715      15.9252462
O       -4.9875197      -0.5077192      16.7201481
H       -4.6767506      -1.0222084      17.4606495
H       -5.8315382      -0.1050824      16.9929905
O       -8.8682861      -0.7391905      15.0217047
H       -8.8987569      0.14423275      14.6110058
H       -9.7352323      -1.1214307      14.9196215
O       -6.0364685      1.34570265      12.9903603
H       -5.1219592      1.33641863      12.6826344
H       -6.1469430      0.49668384      13.4407711