72
 Ord_Energy   -264.0178532
O       13.2747227      11.3935316      -8.7269674
H       13.8923166      12.1016903      -8.9873519
H       13.2967840      11.3438171      -7.7751942
O       10.9771478      10.9151945      -15.423095
H       10.8578067      11.7722243      -14.989136
H       11.3423032      11.0918722      -16.298956
O       14.1137530      9.23634552      -10.454886
H       13.2627971      9.06663959      -10.880383
H       13.9355545      9.92644539      -9.8055428
O       18.2913120      13.3440815      -13.016698
H       18.1134854      12.7374456      -13.759676
H       19.2334973      13.4859189      -12.993118
O       11.2873982      11.9674787      -10.618254
H       11.7140294      12.6873698      -11.106351
H       11.8593967      11.7747660      -9.8646384
O       11.6426147      9.38510422      -11.744594
H       11.5401412      10.2611731      -11.348467
H       10.8514042      9.25079016      -12.286106
O       13.1452631      9.94150547      -14.008935
H       12.4360753      10.2321064      -14.597377
H       12.7132108      9.65376329      -13.194473
O       14.4511995      15.6546872      -11.083995
H       14.4905074      16.5619296      -10.793963
H       15.0940719      15.5668793      -11.810710
O       9.45314299      9.60546001      -13.410624
H       9.10037077      10.4004410      -12.992520
H       9.87377645      9.91256316      -14.225119
O       14.7973640      14.1322336      -15.290954
H       13.9169254      14.2673746      -15.669996
H       14.7017475      13.4431602      -14.615969
O       14.8685107      10.7198035      -17.143987
H       15.4593380      11.4777717      -17.245266
H       15.2273395      10.1969828      -16.419398
O       10.5846127      13.3572128      -14.082961
H       11.2553423      13.6770351      -13.461743
H       9.86038760      13.0404823      -13.529975
O       16.4708595      13.0518286      -17.136684
H       16.7355028      13.6910698      -17.791973
H       15.8839729      13.5118843      -16.509972
O       12.4990744      13.9347848      -12.153574
H       13.0046015      14.6526667      -11.757354
H       13.1570318      13.3411750      -12.550757
O       12.2532841      14.1246921      -16.315629
H       11.5693783      13.9918859      -15.648383
H       12.2501861      13.3325089      -16.867827
O       14.3608107      12.3120347      -13.266177
H       15.0895029      12.1416117      -12.657145
H       13.9719431      11.4664885      -13.523445
O       17.6543120      11.6559038      -14.998939
H       17.0338253      10.9268804      -14.872103
H       17.3764686      12.1131665      -15.802395
O       12.3692877      11.6137957      -17.733898
H       13.2507783      11.2545037      -17.530009
H       12.2037275      11.4272635      -18.654270
O       16.4322589      9.10533013      -11.853324
H       16.9658459      8.40245304      -11.491615
H       15.5924778      9.09963983      -11.357792
O       15.7913439      9.53648449      -14.621649
H       16.1318380      9.26920214      -13.759299
H       14.8317591      9.58423541      -14.490452
O       16.4850219      11.8890829      -11.484017
H       17.2048874      12.3544497      -11.929912
H       16.6174574      10.9389508      -11.591623
O       8.93525186      12.1319586      -12.087036
H       9.68545334      12.0630607      -11.473406
H       8.18248146      12.4034618      -11.567328
O       16.1860763      15.3093125      -13.144028
H       15.7218250      15.0653920      -13.956223
H       16.9498013      14.7234497      -13.087172
O       14.9945969      13.2660207      -9.5895061
H       15.5867696      12.7905986      -10.189990
H       14.8127477      14.1150131      -10.007373