69
 Ord_Energy   -252.3438583
O       13.2597984      10.6278944      -16.546949
H       13.5633155      11.4253290      -16.096820
H       13.9877444      10.3477702      -17.114454
O       16.4105357      6.72218068      -12.717426
H       16.7688321      7.14184515      -11.922741
H       15.4557676      6.61976621      -12.596760
O       16.0822023      10.6760623      -10.770128
H       15.4993388      10.6164686      -10.002780
H       15.5220378      10.8881308      -11.529703
O       18.2308715      10.6508252      -14.548628
H       18.4187965      11.0351352      -13.679528
H       17.4421588      10.1007023      -14.431352
O       15.7380790      7.46765388      -16.506674
H       16.4779974      6.96902219      -16.139346
H       14.9164910      7.08568751      -16.156390
O       12.2334726      8.91980956      -9.9075112
H       12.4015577      7.97532311      -9.8049779
H       12.1802291      9.07814599      -10.860027
O       13.6739818      6.67961017      -12.447710
H       13.3034357      7.57067123      -12.525462
H       13.4748901      6.38153878      -11.551306
O       14.5285565      11.0396644      -13.050509
H       14.4678275      11.7711482      -13.675695
H       15.0236139      10.3367051      -13.502680
O       13.2245806      6.21806112      -9.7239874
H       14.0275121      6.61019078      -9.3351378
H       12.9682347      5.49551479      -9.1577420
O       19.6201999      8.24164495      -14.113648
H       19.2551003      9.08514112      -14.416335
H       19.0793953      7.55031261      -14.509153
O       17.7796098      6.16861113      -15.011551
H       18.0753861      5.26282078      -15.063130
H       17.3102372      6.26163554      -14.163509
O       19.9314163      8.75679236      -11.461876
H       19.8735204      8.52206818      -12.405365
H       20.8382526      8.62353326      -11.200118
O       16.6788174      11.9351394      -16.469029
H       16.4210325      11.2093159      -17.049535
H       17.3507681      11.5833812      -15.868105
O       15.9805916      9.05389381      -14.203560
H       15.7867835      8.64245395      -15.053754
H       16.1654004      8.32662374      -13.596358
O       11.6299373      8.85188759      -15.338864
H       12.1919482      9.50550887      -15.793286
H       10.7693590      8.89710827      -15.746703
O       15.3786671      7.52023949      -8.7139564
H       15.0687024      8.41678720      -8.5348526
H       16.1549787      7.62387566      -9.2800414
O       13.4424177      6.64515284      -15.292520
H       13.5029458      6.46198881      -14.346831
H       12.7632841      7.32611066      -15.380090
O       18.6340698      11.3203859      -11.896512
H       19.1557727      10.5501692      -11.640668
H       17.7956300      11.2421367      -11.423567
O       17.3427734      8.19465154      -10.601790
H       16.9118137      9.05792280      -10.691304
H       18.2817743      8.32781072      -10.783350
O       14.2884792      10.1763800      -8.6566414
H       13.9693598      10.7058324      -7.9308840
H       13.5052282      9.79648717      -9.0940521
O       15.5715055      9.75168836      -17.984137
H       15.6713525      8.89149883      -17.542236
H       15.6823749      9.59377595      -18.918449
O       12.4835386      9.21056994      -12.682280
H       12.0688065      9.10949530      -13.547814
H       13.1359364      9.92028166      -12.767801
O       14.4741982      12.8379803      -15.200184
H       15.3060093      12.5926845      -15.646005
H       14.3687721      13.7785137      -15.311966