60
 Ord_Energy   -214.8942410
O       -7.2099857      -5.5844912      -10.974638
H       -6.7809801      -4.9818329      -10.342558
H       -6.5218501      -5.8751869      -11.587994
O       -10.268602      -3.4433362      -15.269984
H       -10.631978      -3.3578949      -14.377595
H       -9.9619998      -4.3550763      -15.338694
O       -6.6107101      -5.5711445      -15.127171
H       -7.5367040      -5.8225994      -15.226855
H       -6.5975294      -4.6037802      -15.124948
O       -9.1831827      0.10575401      -13.309134
H       -9.0077076      -0.3008333      -14.166047
H       -8.4059057      -0.0576687      -12.757773
O       -5.2517733      -6.1385192      -12.873074
H       -4.6289582      -6.8476271      -13.007209
H       -5.7214608      -6.0105075      -13.717782
O       -8.5403175      -2.8032505      -7.9733638
H       -8.6163148      -2.5044109      -7.0712866
H       -8.8785533      -2.0846691      -8.5370407
O       -4.5477595      -3.3240284      -12.879222
H       -5.1542654      -3.0363113      -13.575736
H       -4.6535749      -4.2798657      -12.818765
O       -8.7347240      -1.2721946      -15.778101
H       -8.9211168      -0.9306315      -16.648292
H       -9.3107404      -2.0487322      -15.651369
O       -10.950082      -3.2229368      -12.572262
H       -11.276483      -3.8982174      -11.964756
H       -11.177825      -2.3522262      -12.220925
O       -11.531572      -5.3593192      -10.864520
H       -12.278301      -5.7922711      -10.460581
H       -10.843404      -5.2816329      -10.178209
O       -4.7143807      -1.7408394      -10.697183
H       -4.5930194      -2.3005838      -11.486209
H       -3.8667891      -1.3496424      -10.505151
O       -9.4489669      -5.1885919      -9.1760416
H       -8.6655921      -5.4745068      -9.6595172
H       -9.1927423      -4.3860344      -8.7033004
O       -8.1601953      -3.2813458      -12.342405
H       -7.8768053      -4.0653171      -11.859722
H       -9.1218366      -3.3087883      -12.426004
O       -9.3800315      -6.1574072      -15.163867
H       -9.4378480      -6.3297348      -14.207341
H       -9.7996263      -6.8944287      -15.600346
O       -11.273035      -0.5769189      -11.736298
H       -10.564914      -0.2733371      -12.334918
H       -11.975158      0.06510851      -11.794198
O       -6.1920695      -3.7382681      -9.2939548
H       -5.6725368      -3.0206489      -9.6759347
H       -6.9047393      -3.3341653      -8.7835283
O       -6.6803622      -2.8214273      -14.628396
H       -7.2109103      -2.2104404      -15.150570
H       -7.2177796      -3.0211448      -13.844869
O       -7.2673821      -0.8234729      -11.464926
H       -7.5829601      -1.6994657      -11.740145
H       -6.3525962      -0.9492342      -11.190917
O       -9.3502368      -0.8308371      -9.6169300
H       -10.109568      -0.7389087      -10.202065
H       -8.5737619      -0.7019758      -10.180805
O       -9.4842624      -6.5740618      -12.479223
H       -8.7045145      -6.3658223      -11.952053
H       -10.242397      -6.2561059      -11.974567