18
 Ord_Energy   -45.5965805
O       24.4798527      2.52878857      24.2744637
H       25.1963482      3.09108043      24.5868721
H       23.8886509      2.43878841      25.0327492
O       21.3297825      4.75674248      25.4139252
H       20.4226036      4.49596262      25.2703609
H       21.7483692      4.01556969      25.8764858
O       23.5161247      5.13327837      23.6809216
H       23.7035198      4.18906116      23.5860043
H       22.7056465      5.17437935      24.2066383
O       25.7958031      5.10793924      25.1712780
H       24.9960117      5.26613855      24.6383057
H       26.5167217      5.52710772      24.7098236
O       22.8256893      2.70088315      26.6706581
H       22.6881428      1.95996511      27.2552128
H       23.5028553      3.26259875      27.0870857
O       24.7748623      4.35920382      27.6244049
H       25.2050037      4.66917896      26.8106594
H       24.7936058      5.09687662      28.2293587