15
 Ord_Energy   -31.5898342
O       8.85529041      -1.8498330      -15.876159
H       7.96271944      -2.1079270      -16.157728
H       9.00353622      -0.9826680      -16.246599
O       3.57940650      -1.9905546      -16.462841
H       3.11683893      -1.3795437      -17.031702
H       3.68889356      -2.8031640      -16.982833
O       7.64775562      -2.8847122      -13.570625
H       8.15748215      -3.5225331      -13.076388
H       8.26689148      -2.4863297      -14.203616
O       6.21372604      -2.7788195      -15.966410
H       6.47837591      -2.9126412      -15.045744
H       5.36581039      -2.3134076      -15.964109
O       4.60194683      -4.2932453      -17.686208
H       4.57987356      -5.2321400      -17.515426
H       5.33759832      -3.9459416      -17.156328