87
 Ord_Energy   -325.8750871
O       3.01028863      -3.3547527      2.83881808
H       3.17517448      -3.6668415      3.72427163
H       2.11933473      -2.9615786      2.83954214
O       3.15775196      0.22046343      -2.4104343
H       4.08720845      0.41841147      -2.2220943
H       2.66494823      0.99086592      -2.0924786
O       -1.8883894      1.12742004      0.42387477
H       -1.0557717      0.88151328      0.86411325
H       -2.4232695      1.58082720      1.06983254
O       6.90990024      -1.3235154      -2.3978180
H       6.72173634      -1.5778620      -3.3096906
H       6.51233081      -2.0070713      -1.8440052
O       3.13477768      -4.7489643      0.31825741
H       3.13411338      -4.3903126      1.21443965
H       3.92055369      -4.3928586      -0.1142252
O       -1.2545547      -3.4918621      0.91866752
H       -1.9580241      -4.1011910      1.12625515
H       -1.6424572      -2.7905320      0.36420774
O       0.53565974      0.38025145      1.43554001
H       1.17221668      1.09608555      1.55309397
H       0.89026553      -0.1871278      0.73143000
O       -2.1866078      -1.5071795      -0.6516140
H       -1.8072413      -1.4081950      -1.5347722
H       -2.2248680      -0.6203657      -0.2754492
O       -0.8656383      -0.9880850      -3.0922140
H       -1.1685694      -0.7136330      -3.9664097
H       -0.1778119      -1.6534026      -3.2300050
O       1.03716596      -3.0056754      -3.5078564
H       1.99449402      -2.8683712      -3.5372528
H       0.87216519      -3.4608579      -2.6701252
O       0.17726195      2.14697735      -4.7363774
H       -0.4143326      1.54712099      -5.2105333
H       -0.1364859      2.13379132      -3.8225666
O       0.55310678      -2.1974051      2.69864968
H       0.50986776      -1.2695123      2.43906365
H       -0.0964902      -2.6599471      2.15368497
O       2.45218495      2.44373235      1.35807988
H       2.62323444      3.18570787      1.93132062
H       3.31263383      2.01501654      1.18885353
O       4.05877792      -1.4890667      1.03513775
H       3.85438201      -2.0819546      1.76874026
H       3.22863109      -1.3787370      0.54921616
O       1.89111025      2.43968930      -1.4020287
H       2.04893453      2.52572959      -0.4551631
H       0.96778491      2.17943727      -1.5370059
O       5.16345509      -3.1300279      -0.9709175
H       4.61727500      -2.9662998      -1.7524123
H       4.87083878      -2.5168164      -0.2810448
O       4.73952127      1.19338605      0.77397876
H       5.16943286      1.24853799      -0.0889223
H       4.62939863      0.25063001      0.96066636
O       5.35734643      2.82804851      -4.0690698
H       5.85258703      3.61202859      -4.2936809
H       4.42280391      3.09527690      -4.0237524
O       5.69684027      1.06076982      -1.8672998
H       5.74553405      1.68433888      -2.6013282
H       6.24925774      0.28753250      -2.0631840
O       3.73314945      -2.3856420      -3.3113206
H       4.44589865      -2.3427973      -3.9630924
H       3.57353476      -1.4777075      -3.0223502
O       1.71718366      -1.1884341      -0.4584824
H       1.42623334      -2.0820782      -0.6831271
H       2.13949854      -0.7906726      -1.2281724
O       -1.3431667      -0.0594753      -5.7429914
H       -2.0515500      -0.1928657      -6.3667612
H       -0.6417135      -0.6967488      -5.9714926
O       2.70871490      3.51699906      -3.8336472
H       1.93275387      3.28979315      -4.3539728
H       2.46634476      3.30761084      -2.9199518
O       5.91010031      -1.9373881      -5.0090854
H       6.29094127      -2.3919652      -5.7552776
H       5.65505201      -1.0490766      -5.3174357
O       0.74421189      -1.7548583      -6.0373931
H       0.77777925      -2.3875144      -5.3087756
H       1.40743917      -1.0833873      -5.8198030
O       -0.6089535      1.55487337      -2.0447942
H       -0.6237895      0.64430146      -2.3767343
H       -1.1586138      1.55982532      -1.2522300
O       5.03452255      0.51732382      -5.7081266
H       4.06798157      0.48634030      -5.7107091
H       5.26230852      1.31966091      -5.2241832
O       2.31507212      0.37400773      -5.1123234
H       1.61104642      1.03437144      -5.0779814
H       2.63677396      0.30239587      -4.2045493
O       0.87405779      -3.8188394      -0.8950615
H       1.64070385      -4.2529982      -0.4893456
H       0.14186550      -3.8499158      -0.2688456