63
 Ord_Energy   -226.8952940
O       3.39543080      -6.7385163      -2.6085176
H       3.66334033      -6.5137896      -1.7084040
H       3.35089803      -5.9234294      -3.1241862
O       2.39768004      -10.617801      -1.1571126
H       2.80769110      -11.475597      -1.0911842
H       2.70930362      -10.218446      -1.9903637
O       -0.0657148      -7.9858708      1.55804324
H       -0.7959699      -8.4999465      1.19259095
H       -0.3850876      -7.0792737      1.62466729
O       2.90311074      -4.4949035      -4.2200613
H       3.47025442      -4.0302915      -4.8295197
H       2.30087304      -5.0426259      -4.7573485
O       1.18486595      -6.0905246      -5.5431942
H       0.32580763      -5.9655728      -5.1178650
H       1.30694044      -7.0442862      -5.6256380
O       1.16738844      -3.2377855      -2.3183922
H       1.77095139      -3.5939590      -2.9811432
H       1.28712440      -3.7799518      -1.5265941
O       -0.9089211      -9.5954866      -4.3986973
H       -0.6825571      -9.7173318      -3.4654145
H       -1.7077484      -9.0560274      -4.4089989
O       -2.1031825      -9.4845304      0.26151884
H       -2.5871071      -8.8487854      -0.2994412
H       -2.7539427      -10.061429      0.65027767
O       3.13531137      -9.3647642      -3.4309089
H       2.57662511      -9.2826433      -4.2128701
H       3.37870336      -8.4607925      -3.1856198
O       -3.3012795      -7.7252244      -1.3516349
H       -3.1134748      -6.8014249      -1.1258362
H       -3.2988548      -7.7826967      -2.3123531
O       0.61300445      -7.0038514      -2.0993027
H       1.53905892      -7.0312495      -2.3731958
H       0.33388239      -7.9086613      -1.9095218
O       -0.7824522      -5.1845312      1.51675332
H       0.00460324      -5.0586276      0.95881003
H       -0.6950230      -4.5887780      2.25655937
O       -1.0921675      -5.8309469      -3.9214386
H       -0.5248937      -6.2509789      -3.2548978
H       -1.3131990      -4.9537696      -3.5863933
O       1.38695645      -8.9299764      -5.6436367
H       1.45300388      -9.4253797      -6.4559841
H       0.54055768      -9.1828050      -5.2318449
O       2.53238153      -8.4846801      0.75250930
H       2.51351857      -9.2497882      0.16801970
H       1.62744474      -8.3431606      1.07008505
O       -1.5088157      -3.3645985      -2.6689944
H       -1.8741464      -2.5120770      -2.8886554
H       -0.5502832      -3.2381968      -2.5504133
O       1.31017411      -5.0951285      -0.2226295
H       0.95978075      -5.7791771      -0.8157299
H       2.20668292      -5.3681135      0.00757455
O       -3.0379626      -7.7187080      -4.2178731
H       -3.7114944      -7.4406604      -4.8331141
H       -2.3834366      -6.9997129      -4.1729993
O       -0.1622822      -9.6712684      -1.7256493
H       0.65246606      -10.108875      -1.4487174
H       -0.8030169      -9.7234640      -1.0052766
O       -2.6173925      -5.1407508      -0.6725727
H       -2.0597024      -5.1129007      0.11445078
H       -2.2594664      -4.4909901      -1.2874200
O       3.83312273      -6.2502021      0.12935315
H       4.59908056      -6.1396188      0.68424445
H       3.40420842      -7.0869073      0.39706764