15
 Ord_Energy   -35.1632690
O       22.8531075      17.8902855      2.06474686
H       22.1325645      17.4432106      2.50026202
H       23.3650932      18.3232307      2.76826048
O       24.9186230      17.8294582      0.25039089
H       24.6075706      18.1070786      -0.6076210
H       24.1328239      17.8029480      0.82204187
O       24.6276913      19.0354424      3.84093881
H       24.8069229      19.9632339      3.63446164
H       25.4140949      18.5868511      3.51143193
O       25.9170074      21.2657719      2.70990920
H       26.3557568      20.4673004      2.37708545
H       26.6198807      21.8541260      2.97667575
O       26.8833504      18.6913548      1.95686138
H       26.2354126      18.3785114      1.30201960
H       27.6598377      18.1500149      1.84454381