84
 Ord_Energy   -312.9856055
O       1.70143419      1.57219130      3.42970401
H       1.04433157      1.39454002      4.11262702
H       1.29517831      1.33062553      2.58267322
O       1.36890532      -5.1088443      2.91455198
H       1.71350702      -5.2436723      2.01402301
H       1.75142663      -5.7916560      3.45915308
O       -0.9239937      -1.5198868      3.97321797
H       -0.7813887      -0.7818995      4.57721051
H       -1.2753243      -1.1189108      3.16210303
O       -1.6897648      -0.1957697      1.70159995
H       -0.8377529      0.08271070      1.33350607
H       -2.2073342      -0.5991799      0.99709756
O       5.09974600      -1.1121817      1.15612634
H       6.02852897      -1.0642103      1.36447817
H       4.61510077      -0.9110757      1.97935340
O       3.80162218      -2.4097470      -3.1734431
H       4.33603388      -2.7561179      -3.8830817
H       2.91746691      -2.8112866      -3.2660815
O       0.13539663      -5.3317744      -1.4789190
H       -0.3885654      -6.0813140      -1.7515040
H       -0.4385013      -4.7750391      -0.9268838
O       -3.0799160      -1.5979053      -0.3173791
H       -3.9592845      -1.9627561      -0.2538493
H       -2.4626395      -2.3436586      -0.2394429
O       -0.9325333      4.19091073      1.40126263
H       -1.4224346      4.98631659      1.20753768
H       -0.8526277      3.70277692      0.56269132
O       1.28094748      -3.3700458      -3.2267852
H       0.90701995      -4.0896358      -2.7064490
H       0.81977245      -2.5651988      -2.9510970
O       2.85228725      0.27308607      -2.7692205
H       3.07725070      0.39445940      -1.8322790
H       3.27309345      -0.5512920      -3.0386309
O       3.33465164      0.67182401      -0.1028287
H       3.53307321      1.61090514      0.01965905
H       4.01189536      0.14637119      0.33759016
O       0.42546655      -0.9326832      -2.1309683
H       1.19049347      -0.4296215      -2.4416016
H       0.63838564      -1.2316405      -1.2355704
O       -1.3379129      -4.1466186      2.83099197
H       -0.4777089      -4.5723278      2.94203408
H       -1.3108796      -3.3424395      3.36442692
O       3.60324041      -0.5066596      3.27904560
H       3.10581016      0.31127706      3.40066137
H       2.93378679      -1.2069316      3.27444257
O       -1.8976209      0.54414051      -1.8384115
H       -2.4751166      -0.0980888      -1.4139705
H       -1.1015217      0.04090360      -2.0671567
O       2.32563459      -5.3690800      0.38650304
H       1.64308028      -5.4334521      -0.2922412
H       2.92549259      -4.6667576      0.10282830
O       1.17598721      -2.1564135      0.26655967
H       2.02337742      -2.4960797      -0.0491316
H       1.26561930      -2.0708894      1.22465175
O       1.80533473      2.91078868      -2.2377771
H       2.16371498      2.10314567      -2.6252766
H       2.43258004      3.18156369      -1.5558199
O       -0.4726158      1.02217610      5.19304343
H       -1.0300681      1.49670312      4.54845647
H       -0.6591412      1.39943645      6.04845615
O       -1.1891516      -3.5604242      0.16187888
H       -1.3553369      -3.8270075      1.07887982
H       -0.3625179      -3.0535876      0.16997774
O       -1.8939061      2.17628133      3.20333459
H       -1.9884216      1.40432831      2.62838325
H       -1.5920643      2.89863329      2.64027303
O       1.85091859      4.01331095      2.05894443
H       0.91678290      4.17199542      1.87770971
H       1.87741013      3.26746778      2.67400691
O       3.73696081      -3.0447981      -0.4183510
H       4.26948390      -2.4401418      0.11396381
H       3.87826389      -2.8244828      -1.3480796
O       3.53808313      3.44504392      0.02307906
H       2.93519802      3.69215759      0.74710538
H       4.24148691      4.08847782      0.02232428
O       1.54890926      -2.3154554      3.02620725
H       0.71755275      -2.0257535      3.42708062
H       1.56670280      -3.2800364      3.06242101
O       -0.5386123      2.68626385      -0.8214441
H       0.21273659      2.82979069      -1.4153439
H       -1.1161576      2.01371364      -1.2125427
O       0.72217690      0.89133465      0.90688137
H       0.33391379      1.54202806      0.30646459
H       1.58396665      0.65052951      0.54424439