87
 Ord_Energy   -326.0314451
O       -0.2277184      3.55879221      4.14925950
H       -0.8728306      3.23742602      4.79261228
H       0.64612444      3.27280345      4.45077445
O       -3.4648028      1.28757613      3.39699452
H       -2.8717137      1.64040745      2.72265635
H       -3.1358060      1.64713730      4.23235399
O       2.38522572      0.26030658      3.54847017
H       2.54057142      -0.5751304      4.00766036
H       1.53932257      0.16835808      3.09214196
O       2.62346657      -2.2406268      4.69076276
H       1.75776369      -2.6542759      4.56707873
H       3.22166817      -2.6503802      4.05275612
O       -1.7752456      -2.3583916      2.51328587
H       -2.5997300      -2.1196031      2.95501634
H       -1.2631267      -1.5405108      2.43207028
O       -4.0312611      -1.3092964      3.81964089
H       -3.8657435      -0.3670945      3.63254721
H       -4.9499953      -1.4708592      3.61877521
O       -0.5063978      -3.5742964      0.36149603
H       -1.0719564      -3.2280546      1.07121255
H       -1.0724613      -4.0740814      -0.2219506
O       -0.9198932      -2.5367448      6.59317491
H       -0.4823471      -2.4846309      7.45096948
H       -1.8487276      -2.2809114      6.70381959
O       1.68297715      1.54125074      -0.3689817
H       2.46882146      1.53637528      0.19298750
H       1.38463418      0.62541673      -0.4160483
O       2.37745936      2.71673712      4.78540510
H       2.95130610      3.24289989      4.21775764
H       2.39760161      1.82150816      4.41147605
O       -0.0090114      3.60731188      -0.1697534
H       0.62306261      2.87606395      -0.3026843
H       -0.2241672      3.95064421      -1.0320844
O       0.55225427      -2.1627947      8.94616195
H       0.83542604      -2.7103439      9.67281238
H       1.35122263      -1.9302715      8.43744484
O       3.76243543      3.99811084      2.63643728
H       2.89353968      4.35085207      2.37243368
H       4.36990546      4.73317162      2.62673263
O       -1.2754746      2.27234781      1.93203138
H       -0.9245134      2.75700172      2.69478481
H       -0.9714612      2.73408825      1.14169575
O       1.42553343      1.16170967      6.90923886
H       1.85284021      1.85167386      6.38934693
H       0.82017009      0.70794362      6.30238337
O       1.24947837      4.85443565      2.06031180
H       0.82503428      4.53233452      1.25533736
H       0.66220268      4.61511710      2.78802933
O       2.59459764      -1.3543857      7.38193166
H       2.70705583      -1.7180768      6.49477491
H       2.36195945      -0.4231365      7.26408959
O       -3.4228939      -1.4986068      6.65005641
H       -3.4083247      -0.6317100      7.07405021
H       -3.6772200      -1.3695581      5.72874727
O       3.65977814      -1.3691361      0.57041046
H       3.90463378      -1.9816369      1.27451818
H       3.97417239      -0.4928257      0.82224225
O       -2.0625827      2.08262077      5.68560290
H       -1.5047475      1.30544473      5.52377314
H       -2.4967145      1.90979474      6.52898033
O       -0.1049947      -0.1547346      2.36466387
H       -0.5270344      0.69500918      2.17001275
H       0.30334106      -0.4874745      1.55010220
O       1.57528276      -4.5416881      2.11520759
H       1.09637430      -4.3612523      2.93628741
H       0.95880396      -4.3220647      1.40831295
O       0.12743357      -3.4852271      4.27649592
H       -0.5517471      -3.1659265      3.66885296
H       -0.2273768      -3.3297741      5.16416836
O       -3.0571098      0.99041691      8.06034494
H       -2.1582167      0.81338804      8.39388430
H       -3.5710929      1.29025693      8.80512540
O       3.83089264      1.37521465      1.47778060
H       3.39175529      0.93390836      2.22085326
H       3.96661614      2.28367250      1.77205964
O       -0.5155599      0.48926315      8.84794118
H       0.17489684      0.89035662      8.30378876
H       -0.2157365      -0.4108319      9.02222788
O       4.00569308      -3.4134009      2.54402121
H       3.17662583      -3.8737672      2.31805233
H       4.70043566      -4.0662385      2.51504983
O       0.99576514      -1.1707278      0.08628011
H       0.55231004      -2.0200666      -0.0059177
H       1.94554181      -1.3358365      0.20989922
O       -0.4306199      -0.1073433      5.24836823
H       -0.3131316      -0.2592832      4.30586655
H       -0.6028442      -0.9568478      5.67626492