24
 Ord_Energy   -70.0939636
O       -2.1752605      1.13705373      -1.4195992
H       -1.4291919      1.40061641      -0.8681005
H       -1.7858769      0.82002097      -2.2444996
O       -2.6782288      -1.2966839      -0.1261102
H       -1.9981992      -1.2448295      0.55210728
H       -2.6756782      -0.4266990      -0.5542636
O       -1.1932437      -2.4704361      -2.1646437
H       -1.1231932      -1.7453525      -2.7972707
H       -1.8398375      -2.1815009      -1.5024000
O       1.42972100      0.10112191      -1.8717482
H       1.11603963      0.68204749      -1.1663283
H       1.46566153      -0.7809391      -1.4821831
O       1.01630688      -2.4865186      -0.6385014
H       0.23306882      -2.5641286      -1.2158592
H       1.54076791      -3.2701051      -0.7759115
O       -0.1602931      -1.0796748      1.44228566
H       0.28464568      -1.6257970      0.77301276
H       -0.0760583      -1.5406134      2.27340364
O       -0.6995347      -0.0384179      -3.6009810
H       0.11882291      0.05174513      -3.0823485
H       -0.4945468      0.24099889      -4.4891252
O       0.15417005      1.44604194      0.29715273
H       0.33646625      2.12915850      0.93784368
H       0.02374399      0.62288958      0.79461849