75
 Ord_Energy   -277.0313698
O       -4.5463890      9.63484262      -5.6070578
H       -4.9748804      8.86425027      -5.1910828
H       -4.8875357      9.69253221      -6.4952662
O       -4.4033962      11.6706470      -3.6009383
H       -4.4853683      11.0623069      -4.3446293
H       -4.8386898      11.2351279      -2.8556102
O       -3.8204922      5.31738286      -4.1358954
H       -3.6080897      4.37662946      -4.0914755
H       -2.9925272      5.76383429      -4.3668237
O       -1.9993667      9.06776855      -4.6092453
H       -2.8259453      9.26701761      -5.0656652
H       -1.7620178      8.14853478      -4.7964152
O       1.26244853      9.08738143      -1.8397032
H       0.78904046      9.70985333      -2.4239780
H       2.15912792      9.40283993      -1.7696986
O       -2.0903794      12.7058948      -2.6191017
H       -2.9109723      12.3520747      -3.0057075
H       -2.0425844      13.6226813      -2.8783499
O       -0.9974762      3.15392109      -1.7665029
H       -1.0978980      3.87581692      -1.1330571
H       -0.1448449      3.29982077      -2.1950208
O       -1.3039523      6.41772880      -4.6825382
H       -0.7691883      6.48742010      -3.8797470
H       -1.0307408      5.59781044      -5.1181427
O       -1.2597009      5.58705100      -0.3271228
H       -1.2540575      6.09897790      0.48913776
H       -2.1349267      5.72678904      -0.7242964
O       -3.9908770      8.30423416      1.67804739
H       -4.2290466      9.22897349      1.55529286
H       -4.6694149      7.77967981      1.22817480
O       -1.4682945      7.41898291      1.80963480
H       -2.4017753      7.70558350      1.79308287
H       -1.2281199      7.32352726      2.72694202
O       -5.7518256      6.78949097      0.16619741
H       -6.3531147      7.17586590      -0.4795880
H       -5.0356760      6.41407618      -0.3662251
O       -2.7265080      2.74400050      -3.8337979
H       -2.1679800      2.85729225      -3.0441288
H       -3.0725750      1.85623384      -3.7988530
O       -7.0784396      8.13369124      -2.0223531
H       -7.9733714      8.46258110      -2.0588392
H       -6.5094937      8.89462101      -1.8121150
O       -5.2886264      10.1160110      -1.4391606
H       -5.2060188      10.4823475      -0.5503306
H       -4.4613567      9.64022256      -1.6166432
O       -2.2683724      11.8346652      0.08648665
H       -2.2051595      12.1935375      -0.8068621
H       -1.7058182      11.0479249      0.09961093
O       -4.6347552      11.0521860      1.11163456
H       -3.7820548      11.3952827      0.78638476
H       -4.9623682      11.6821688      1.74724475
O       -0.1850706      10.7316778      -3.3790569
H       -0.7425564      11.4625798      -3.0877453
H       -0.7508133      10.1831832      -3.9420693
O       -2.9168724      8.80866704      -1.9559272
H       -2.2207495      9.05286194      -1.3326159
H       -2.5858894      8.94777266      -2.8521458
O       -5.6275506      7.48426884      -4.4046506
H       -5.1197745      6.66580523      -4.3390986
H       -6.1445215      7.57160585      -3.5952298
O       0.34089530      6.49095897      -2.4016454
H       0.70738137      7.36492837      -2.2236716
H       -0.1949861      6.22661652      -1.6389634
O       -0.5601534      3.86659790      -5.3966316
H       -1.2948044      3.37861394      -5.0037219
H       0.16383462      3.80499381      -4.7602933
O       -0.9071562      9.40743802      -0.0851168
H       -0.0782728      9.27348434      -0.5599445
H       -0.9858984      8.72946629      0.59803418
O       1.30780623      4.03593173      -3.2117875
H       2.25378454      3.95259975      -3.1244727
H       1.07894749      4.94123279      -2.9414416
O       -3.6198566      6.18456481      -1.5176772
H       -3.4198911      7.12232303      -1.6612768
H       -3.7677074      5.79500346      -2.3877866