60
 Ord_Energy   -214.9638980
O       -0.9308278      11.0397911      2.75373816
H       -0.1394327      10.6263723      2.36649036
H       -1.6808105      10.5219746      2.47269654
O       4.68084335      13.5116463      1.09238458
H       4.81757259      12.7701025      0.48918599
H       5.47036266      13.6055117      1.64068115
O       4.90436602      14.7525702      4.66816473
H       4.22446537      15.3469200      4.32649851
H       4.44899511      13.9757500      5.01388931
O       2.92449665      16.4499245      3.53770494
H       2.85648417      16.1628704      2.60969949
H       2.99955106      17.4006824      3.52430248
O       5.94041729      11.2556858      3.90650010
H       5.26271629      11.5389652      4.53103638
H       6.35729122      12.0673084      3.59240246
O       5.03838301      9.74609756      1.76137280
H       4.40771532      9.10802460      2.11116815
H       5.39760637      10.2237511      2.52348185
O       2.81571054      15.5442286      0.98535150
H       2.08975005      15.1410723      0.49728549
H       3.54890037      14.9140549      0.92628068
O       6.75677776      13.8281670      2.94359064
H       6.15528917      14.2361994      3.59401035
H       7.59862566      14.2660732      3.03036332
O       2.98205781      8.11249542      2.88452578
H       2.99819326      7.17545271      3.05560589
H       2.88332987      8.55534363      3.74831772
O       3.61464214      12.2468348      5.28976440
H       2.88065147      12.4906235      5.86841393
H       3.26702309      12.2893562      4.38230085
O       2.64435792      12.4723673      2.74536729
H       3.32566524      12.8418427      2.16890597
H       1.84542131      13.0070200      2.65563536
O       0.07599475      13.6264553      2.39439368
H       -0.3997683      12.7912798      2.49518132
H       0.18066745      13.7945938      1.44906354
O       1.24407160      13.0623541      6.55014420
H       1.06241894      13.7885609      5.92629671
H       1.01348031      13.3792019      7.41922951
O       1.45699978      10.1637726      1.76242507
H       1.96174288      10.9043179      2.13521433
H       1.90312648      9.35790634      2.04868388
O       1.98077178      11.5799837      -0.6170707
H       2.93514562      11.4629745      -0.6972594
H       1.70990241      10.9813490      0.09145301
O       0.81139135      14.9738188      4.70322752
H       0.41520601      14.5861015      3.91038895
H       1.51587820      15.5510807      4.38516426
O       0.76682955      13.9870348      -0.2953716
H       1.21291590      13.1366968      -0.4588249
H       0.29561362      14.2071667      -1.0943490
O       0.12536044      10.6631727      5.43386793
H       0.38835633      11.5090160      5.81837034
H       -0.3137189      10.8606739      4.59954309
O       2.61756825      9.49540710      5.16051912
H       3.13838577      10.2885876      5.31557703
H       1.69703948      9.77306843      5.28349352
O       4.80352116      11.2046375      -0.4691655
H       4.89238214      10.6308870      0.31564936
H       5.41195107      10.8729544      -1.1231639