81
 Ord_Energy   -300.5376896
O       0.65132286      4.35993383      5.01378617
H       -0.1522689      3.84852199      4.82225087
H       0.39662195      5.27895379      5.03289522
O       -1.5497634      2.36218219      1.58445208
H       -0.6211021      2.36216223      1.31758626
H       -1.5597076      2.60556338      2.51844739
O       3.07292373      -1.7830151      2.68049544
H       2.73445736      -2.4901583      3.24439137
H       3.81185485      -1.3560319      3.13188005
O       1.53452126      -1.4335159      6.12142397
H       0.78137013      -0.9624278      5.73958003
H       1.65946247      -2.2280001      5.58770062
O       -1.1516324      -1.6819358      1.28721691
H       -1.9231978      -1.1095979      1.20333216
H       -0.4728406      -1.1584560      1.74053208
O       1.86767629      2.82719030      7.14887125
H       1.53115890      3.44503130      6.48857811
H       2.42718915      2.19954193      6.67331387
O       -3.1990410      0.26535434      1.17999674
H       -3.7715403      0.44450984      0.43857144
H       -2.6152240      1.03951806      1.27690951
O       0.52122588      -2.4620924      -0.7924673
H       0.22321907      -3.2862399      -1.1696418
H       -0.1336576      -2.2266230      -0.1172723
O       -2.4441111      -1.7878635      5.17398399
H       -2.6749099      -1.8569250      6.10772767
H       -3.1406079      -1.2881630      4.71839331
O       2.93876074      -1.2717874      -0.0874105
H       2.12951425      -1.6966871      -0.4037984
H       3.06434803      -1.5676466      0.82284556
O       3.10013655      0.81875925      5.49532144
H       2.60750167      0.03940682      5.78507093
H       3.89316796      0.48345229      5.05959609
O       3.40841579      1.35201469      -0.3452876
H       3.70574764      1.55007187      -1.2286527
H       3.25715123      0.38908677      -0.3062849
O       -2.8288354      -1.7495883      7.94897408
H       -1.8825442      -1.6711767      8.16756818
H       -3.2146085      -2.3320231      8.59747552
O       4.70607173      1.81654628      2.14704071
H       4.03664920      2.33501082      2.61270074
H       4.36441689      1.67641523      1.25515251
O       1.21496865      2.14072453      1.21281420
H       1.90682831      1.94085214      0.56990861
H       1.65417590      2.45615687      2.01721407
O       -0.4065700      1.35113909      7.56134876
H       -0.4321250      0.97112151      6.67298889
H       0.37702396      1.91716558      7.58354307
O       2.46996316      2.78686280      3.58696923
H       2.60590321      2.07128032      4.22437171
H       1.92802555      3.45044991      4.03039279
O       -0.1878904      -1.3026708      8.39532854
H       0.50591299      -1.5600335      7.77740699
H       -0.2130875      -0.3362862      8.34188078
O       -4.1269006      -0.1336982      3.84506557
H       -4.1880452      0.72898063      4.27162111
H       -3.8731307      0.02092807      2.92668611
O       -1.4934509      2.73213546      4.39753287
H       -2.4079549      2.72987297      4.70950795
H       -1.1532262      1.84214991      4.56383674
O       0.78198492      -0.2139842      2.61155116
H       1.60387117      -0.7213343      2.62809251
H       0.92584053      0.57177056      2.06861865
O       -0.7958242      -3.3322229      3.54817408
H       -0.9766663      -2.9209700      2.69382418
H       -1.4140666      -2.9202564      4.16733410
O       -4.0772411      2.31258791      5.35493373
H       -3.8093788      1.87675319      6.18546100
H       -4.8432283      2.84275645      5.55681803
O       5.13426224      -0.2404582      3.83742749
H       5.07007934      0.48700407      3.19124914
H       6.06243451      -0.3949748      3.98977065
O       -3.1710767      1.08497928      7.57273604
H       -3.2174466      0.13766391      7.74379945
H       -2.2426365      1.32600743      7.70279094
O       1.75334724      -3.6149819      4.34765299
H       1.92427033      -4.5329008      4.53945658
H       0.82926140      -3.5585170      4.04002471
O       -0.5159338      0.16137694      4.96287998
H       -0.0495266      0.04202154      4.12075162
H       -1.2276062      -0.4938877      5.01663937