84
 Ord_Energy   -312.7245451
O       0.07800714      -2.7747861      -2.6322460
H       0.93282954      -2.9961910      -3.0219664
H       -0.4300815      -2.2550229      -3.2751502
O       1.22599547      -1.1126939      -0.6981795
H       1.71053304      -1.7362899      -0.1377086
H       0.80041902      -1.6269445      -1.3977172
O       1.44869440      2.47324055      -0.8456893
H       0.66093910      2.13847353      -1.2966904
H       2.19167859      1.98551591      -1.2265714
O       -0.7024859      -0.6752446      1.20229382
H       -0.0592051      -0.7156731      0.47868471
H       -0.2125871      -0.4395040      2.00270368
O       0.85740768      0.19989794      3.29309971
H       0.23427630      0.78343087      3.75020946
H       1.38413615      0.78511109      2.72656000
O       2.40984565      -2.9978201      1.00410678
H       2.66306612      -2.5969626      1.84401126
H       1.53118225      -3.3842209      1.13882329
O       -0.7588455      1.64962159      -2.3141775
H       -1.4827072      1.01078273      -2.2602632
H       -0.3872593      1.55711608      -3.2008082
O       -0.0281743      4.54022655      0.39765532
H       -0.9098302      4.32277302      0.07246384
H       0.57751056      3.97639591      -0.1030356
O       2.24575666      2.04035185      1.78327408
H       1.95188635      2.14052747      0.86707539
H       1.92277614      2.81537375      2.26073874
O       3.19163914      0.55711955      -1.7442777
H       4.03461295      0.25395522      -1.3878660
H       2.50479955      -0.0174776      -1.3690729
O       -3.0070335      0.00852740      -2.3074797
H       -3.6826140      0.67529563      -2.1366049
H       -3.0294816      -0.6107893      -1.5647222
O       -2.2750527      1.66800721      1.62844662
H       -1.7042231      0.92221829      1.40445648
H       -2.2384326      2.28072112      0.88228786
O       -2.9627171      -1.6875212      -0.1027135
H       -2.6868004      -2.5617673      -0.4038468
H       -2.2241309      -1.3330613      0.41234587
O       0.25312054      1.02567467      -4.8588739
H       1.07789677      0.53188021      -4.6989612
H       0.38544718      1.53331654      -5.6546620
O       2.69125628      -3.1335160      -3.5579913
H       3.09465859      -3.8060858      -4.1003742
H       3.21465850      -3.0856213      -2.7376499
O       4.08106103      -2.9661328      -1.2370178
H       3.57252919      -3.1423401      -0.4337311
H       4.63558775      -2.2036246      -1.0324470
O       2.49103842      -0.3545490      -4.2730903
H       2.83750548      0.04307382      -3.4616996
H       2.57750972      -1.3064552      -4.1525312
O       -0.8479902      2.20094970      4.01547110
H       -0.3030762      2.95995682      3.77205810
H       -1.4816886      2.10053598      3.29180334
O       5.44457765      -0.5633440      -0.5049668
H       6.37188875      -0.3430355      -0.5215092
H       5.10946800      -0.3046678      0.37296571
O       -1.7138124      -4.0525415      -1.0176903
H       -1.0636784      -3.6546272      -1.6224236
H       -2.0477973      -4.8360163      -1.4467088
O       0.88553416      4.22829982      2.93118733
H       1.15156142      5.06737685      3.29750679
H       0.49957815      4.41456907      2.05605715
O       4.36986239      0.19328698      1.84919907
H       4.00306731      -0.4517860      2.46437297
H       3.73974995      0.92591736      1.82422342
O       -4.8023434      1.99417161      -1.3507086
H       -4.8718178      1.44784572      -0.5466893
H       -5.6860244      2.27515117      -1.5715376
O       -0.2356628      -3.6055894      1.36986904
H       -0.7500262      -3.9093583      0.61123932
H       -0.4979568      -2.6886207      1.50453667
O       -4.6730492      0.40693593      0.84725366
H       -3.9563152      0.86737585      1.30652933
H       -4.3060010      -0.4505977      0.59973455
O       -1.4184808      -1.2114424      -4.2789021
H       -0.9038443      -0.4673699      -4.6152459
H       -2.1047303      -0.8272176      -3.7164231
O       2.87622844      -1.6449827      3.45102790
H       2.11271259      -1.0458721      3.50970878
H       3.00516886      -2.0121900      4.32197443
O       -2.3403094      3.28140124      -0.6925656
H       -1.7662406      2.83101859      -1.3292609
H       -3.2415625      3.03247959      -0.9306508