90
 Ord_Energy   -337.9367673
O       -2.4139666      11.1678182      -4.9598251
H       -2.3955267      11.6884663      -5.7579748
H       -3.1101089      10.4948365      -5.0777576
O       -2.8476168      12.1344878      -2.3076912
H       -3.5567471      11.5682473      -1.9775970
H       -2.7145125      11.8874814      -3.2309914
O       -3.1267667      6.72821309      -5.0948684
H       -2.1626803      6.77285045      -5.0327206
H       -3.3764640      5.80291417      -5.2220826
O       -0.4984659      9.51095968      -3.7767063
H       -0.4179158      8.67445223      -4.2540234
H       -1.0915112      10.0906679      -4.2713725
O       -7.3920760      6.60975192      -2.7754314
H       -7.1269589      5.95593341      -3.4329537
H       -7.0091846      7.45458724      -3.0429931
O       1.73073119      7.79896419      -0.6516909
H       2.63604833      7.78903214      -0.3528682
H       1.55833532      8.69345295      -1.0007421
O       0.48183443      4.90534691      -6.5159951
H       0.88416468      4.86566342      -7.3791619
H       -0.2759120      4.29270979      -6.5300195
O       -0.7857582      12.1190698      -0.5274541
H       -0.5373440      13.0254631      -0.3624780
H       -1.5083848      12.1457141      -1.1790624
O       -2.8099250      2.93282258      -2.7265493
H       -2.1132800      2.39206294      -3.1190643
H       -2.3742822      3.52714179      -2.1000067
O       -0.3634551      6.91735783      -4.7711535
H       -0.0240359      6.32585637      -5.4545933
H       -0.0622607      6.56340407      -3.9212800
O       -1.6998917      4.88154558      -1.0896326
H       -2.3326741      5.46757690      -1.5358774
H       -1.7788719      5.04980070      -0.1433100
O       -4.3267704      6.94849192      1.38762267
H       -4.8977828      6.57888089      0.69856590
H       -4.4749494      7.89974958      1.40672109
O       -1.9635755      5.72503437      1.57157395
H       -1.9169119      5.23434026      2.38710952
H       -2.8425002      6.14961993      1.54615007
O       -5.6128150      5.86676588      -0.8097708
H       -4.8467356      6.12078803      -1.3474357
H       -6.3836039      6.12983742      -1.3319831
O       -6.5806124      4.25809139      -4.3102781
H       -6.2885549      3.85751160      -3.4704613
H       -7.3246226      3.74279931      -4.6125649
O       -6.3190776      9.23319270      -3.2555881
H       -5.7234337      9.51364621      -2.5406752
H       -7.0242112      9.87658212      -3.2876457
O       -3.8782357      4.08058862      -5.0667879
H       -3.5248552      3.71657006      -4.2417883
H       -4.8354362      4.13798829      -4.9555974
O       -5.5510352      3.28204799      -1.9926724
H       -5.5548937      4.06443861      -1.4247362
H       -4.6274749      3.03683063      -2.1295342
O       -4.5411354      10.0745933      -1.3313592
H       -3.6818326      9.64224597      -1.4556957
H       -4.7132591      10.0434903      -0.3822206
O       -0.6477104      1.68821156      -4.0305164
H       -0.2259568      0.83658167      -3.9550065
H       0.05555020      2.35862863      -3.9596835
O       -1.9408824      10.4574547      1.48615438
H       -1.4393458      9.63793631      1.37620775
H       -1.5609820      11.0803839      0.85477389
O       -4.5709546      9.81608619      1.45240364
H       -5.0249733      10.2356584      2.17829393
H       -3.6349498      10.0810573      1.51480157
O       1.06179532      10.2186327      -1.6142747
H       0.64344157      10.0442830      -2.4699443
H       0.50509638      10.8754377      -1.1795336
O       -2.1171932      8.79935155      -1.5913998
H       -1.5185993      9.07866587      -2.2952048
H       -1.6006284      8.61860631      -0.7964487
O       -4.2627566      9.25054692      -5.2016668
H       -5.0233149      9.21660987      -4.6099826
H       -3.9123780      8.35032469      -5.2535350
O       0.54717787      5.86890530      -2.3628788
H       -0.1977756      5.50238806      -1.8647309
H       1.00264693      6.49714443      -1.7910138
O       -1.5606356      3.13353357      -6.3366249
H       -2.4366137      3.44272351      -6.0704977
H       -1.2871200      2.50956185      -5.6526949
O       -0.6952260      8.08053729      0.72985386
H       -1.0492997      7.24702125      1.06480119
H       0.18809348      7.91357348      0.37926248
O       1.20106257      3.67926243      -4.0127300
H       1.09588178      4.39602619      -3.3733027
H       1.12563365      4.08948528      -4.8830246
O       -3.4366457      6.56622804      -2.3391106
H       -3.4389112      6.58681805      -3.3030030
H       -2.9957086      7.37715500      -2.0461790