81
 Ord_Energy   -300.1958345
O       -3.0125176      -1.6770656      -2.1747580
H       -2.7861986      -2.4795640      -1.6903852
H       -3.2472874      -1.0264869      -1.4961698
O       -2.2793212      0.36341908      -5.8697410
H       -2.5082289      1.23182932      -5.4898482
H       -2.1573010      0.49480348      -6.8056859
O       -3.6531243      -0.0346081      2.58826953
H       -4.1878862      0.74391443      2.79026640
H       -2.7831574      0.13506871      2.97976493
O       -2.1711571      -3.7022110      -0.4022492
H       -2.3587709      -3.3145716      0.47334618
H       -2.4090994      -4.6238356      -0.3496026
O       -2.5501114      -2.6127537      2.03532118
H       -3.0780002      -1.8298835      2.23363539
H       -1.7919479      -2.5793900      2.63227887
O       0.62363529      1.49710310      1.93754433
H       1.53662843      1.23298101      1.78197211
H       0.10846725      1.07080764      1.23542005
O       -3.0616482      2.65938633      -4.6842661
H       -2.6448292      3.05919319      -3.9108634
H       -3.9762829      2.47556694      -4.4350492
O       -2.2938286      2.97169907      4.27503724
H       -1.9069578      2.08742571      4.31387038
H       -3.1954556      2.84598363      3.95615616
O       -4.8628394      2.45383880      3.06901493
H       -5.6792944      2.75832664      3.45595288
H       -4.6997039      3.01292166      2.28820517
O       1.69118188      -2.0000917      1.92410757
H       2.22987640      -1.2249239      1.72903279
H       1.27685919      -2.2476712      1.08549686
O       -4.3920746      3.95167221      0.86131910
H       -3.5773064      4.43187323      0.67659313
H       -4.5699875      3.43305063      0.06446300
O       -1.8696140      5.13279937      0.07911980
H       -1.6996726      6.06836607      0.14728028
H       -1.4132841      4.71264161      0.83203106
O       1.42710012      -1.9283562      -2.9913627
H       1.82082726      -2.4218608      -3.7060864
H       0.62381886      -1.5089250      -3.3451689
O       -4.4986755      2.30750460      -1.3767455
H       -4.9945736      2.05839436      -2.1646248
H       -4.1733007      1.49948776      -0.9512549
O       -5.6215060      1.64030135      -3.8487134
H       -5.3065403      0.73890655      -4.0386185
H       -6.5012881      1.70911452      -4.2090503
O       -0.9006066      -0.6939672      -3.7193243
H       -1.3017648      -0.3777888      -4.5392353
H       -1.6128162      -1.0407184      -3.1630718
O       -0.2872489      -2.2879456      3.74382219
H       0.46239741      -2.1850095      3.13026948
H       0.01232907      -2.8507406      4.45264559
O       -0.7210743      3.95192288      2.18380876
H       -0.1389158      3.19082140      2.07100173
H       -1.2776943      3.74325725      2.94716249
O       -4.4936224      -0.7658637      -4.4023198
H       -4.0709501      -1.1967915      -3.6473485
H       -3.7821619      -0.5207467      -5.0063643
O       -0.6561821      0.20120018      -0.1150396
H       -0.3641800      0.71224590      -0.8825227
H       -0.2978295      -0.6916746      -0.1964827
O       -2.0583175      3.41146757      -2.1272042
H       -2.8992088      3.00123972      -1.8771226
H       -1.8913089      4.08049875      -1.4509514
O       -3.3712078      0.14686537      -0.1480363
H       -3.6214228      0.06348192      0.78058310
H       -2.4047785      0.22826933      -0.1423469
O       2.45880784      0.40519573      -1.5919897
H       1.76336909      1.01062165      -1.8822295
H       2.28713864      -0.4167987      -2.0644075
O       -1.1534626      0.39879378      3.77705880
H       -0.8558632      -0.5073715      3.91942157
H       -0.4882084      0.81206924      3.20785413
O       0.32459207      -2.4158638      -0.4624162
H       0.73161872      -2.3906827      -1.3371831
H       -0.4779033      -2.9506011      -0.5106277
O       3.06917334      0.36912176      1.07701456
H       3.97811573      0.63679460      1.18430029
H       2.88397242      0.39188200      0.12184341
O       0.03621178      1.61205784      -2.3862503
H       -0.6397797      2.30184781      -2.3263388
H       -0.3131713      0.90959211      -2.9509138