39
 Ord_Energy   -129.5874790
O       1.32203782      9.33750725      -6.5556612
H       0.74595577      8.67349339      -6.9529719
H       2.10783601      9.38177967      -7.1214227
O       0.18853781      11.7091427      -7.5032782
H       0.50905532      10.8865604      -7.1040468
H       0.49065119      12.4228907      -6.9283256
O       -1.0792769      10.0953522      -9.4488134
H       -0.8462922      10.7586546      -8.7853193
H       -0.9440160      9.23902702      -9.0235700
O       5.19882202      10.6023016      -6.1444048
H       5.70870543      10.0445881      -5.5627231
H       4.38364744      10.8351889      -5.6633992
O       5.89563417      13.0053482      -7.4225196
H       5.74014854      12.1674833      -6.9619631
H       6.73512745      12.9114618      -7.8665771
O       2.81916094      11.1475048      -4.9746265
H       2.40874076      11.9966888      -5.1815438
H       2.21644497      10.4684696      -5.3050193
O       2.18747163      11.7941370      -9.4795589
H       1.46238601      11.8208866      -8.8372507
H       1.82678092      11.3762465      -10.270476
O       3.30723858      13.8866282      -7.9485468
H       4.23966217      13.6854315      -7.7887082
H       3.01332760      13.2753496      -8.6359443
O       3.53387833      9.66955757      -8.2607832
H       4.21638584      9.94397926      -7.6382980
H       3.19935489      10.4690771      -8.6941738
O       0.82032394      10.2317705      -11.397742
H       0.06615186      10.2025461      -10.781161
H       0.45863476      10.3535166      -12.271154
O       1.95016944      8.03385735      -9.9376716
H       1.65051663      8.69961929      -10.569790
H       2.64448643      8.45974159      -9.4169530
O       1.58875000      13.5553350      -5.8987717
H       1.39531529      14.3792257      -5.4607486
H       2.22625709      13.7551718      -6.6092381
O       -0.1590808      7.64264011      -8.2589178
H       0.59115386      7.67457104      -8.8802766
H       -0.4860066      6.74732351      -8.2656946