24
 Ord_Energy   -68.5904083
O       3.58878803      1.92142844      0.18981682
H       3.69415236      1.42258120      1.01432681
H       3.03336287      2.67747521      0.40859875
O       -0.2860438      2.03617597      1.23926699
H       0.39999494      2.72125769      1.20089495
H       -0.9881449      2.38310552      1.78451800
O       2.22124553      0.16663533      -1.3796520
H       2.80891728      -0.3212489      -1.9495854
H       2.77141857      0.80253148      -0.8870486
O       -0.0337443      1.84678781      -1.6302253
H       -0.3245276      1.82134938      -0.7105470
H       0.70182991      1.22132301      -1.6814962
O       1.14716625      -0.4422389      1.22751093
H       1.44920468      -0.4228206      0.31043324
H       0.57549423      0.33057144      1.32107711
O       3.49396253      0.33201763      2.46772718
H       3.89130926      -0.3681993      2.97841239
H       2.65310574      -0.0244612      2.13479161
O       0.87525284      4.42006588      -1.7236449
H       0.51164579      3.52257872      -1.8223696
H       0.98357081      4.76365852      -2.6056327
O       1.67409706      4.00705862      0.83193773
H       1.42839277      4.25361681      -0.0779391
H       1.97372949      4.80194521      1.26505435