78
 Ord_Energy   -288.6174944
O       0.72370382      4.10840249      5.80493945
H       0.48436492      4.93046831      6.22587548
H       -0.0736718      3.55376846      5.79929655
O       -2.5749843      2.84254665      3.08999628
H       -2.2391980      2.77793260      3.99240568
H       -1.8171010      3.09048530      2.54370098
O       2.19054271      -0.7290523      1.11085776
H       3.05858383      -0.3445561      1.28355178
H       2.15563374      -1.5963896      1.53579740
O       2.22272744      -1.5134202      4.83179159
H       2.14342401      -2.1152328      4.08084242
H       1.35352387      -1.1079708      4.95452933
O       -1.8344959      -0.6494376      1.18964702
H       -1.1474277      -0.2166607      1.71903885
H       -2.6697276      -0.2881924      1.50896599
O       2.66979667      2.21923969      6.82444751
H       3.05207483      1.85444950      6.01657375
H       2.08920348      2.93712762      6.54498323
O       -4.0357351      0.67165506      2.43042081
H       -3.5435282      1.48728102      2.63586522
H       -4.8534513      0.94050448      2.01946184
O       -1.8763937      -2.2715536      5.11247038
H       -2.7047702      -1.7650638      5.10294189
H       -1.7464893      -2.6382057      5.99497752
O       0.20365780      0.11033890      -0.7034710
H       0.93780679      -0.2939079      -0.2199403
H       -0.6006655      -0.1882377      -0.2616846
O       3.33033678      1.01871015      4.27662358
H       3.89084802      0.90515697      3.49977030
H       3.01137402      0.13459969      4.50345663
O       0.97205747      2.71206256      -0.7500317
H       0.67766705      1.78508409      -0.7998758
H       0.86256766      3.08296553      -1.6215236
O       -1.1847354      -3.0398218      7.72037656
H       -1.2892377      -3.8259318      8.24956481
H       -0.2273076      -2.8767712      7.64487144
O       4.54764550      0.69027599      1.72324040
H       5.46116571      0.65588963      1.45334332
H       4.17720137      1.51949297      1.36839703
O       -0.1666388      3.23753245      1.75001877
H       0.15213342      3.17854279      0.84044801
H       0.59620711      3.41854144      2.31877746
O       0.82309082      0.38231769      7.71535237
H       1.53003171      1.02845668      7.58365310
H       0.45183194      0.22838860      6.83465970
O       3.29520993      2.93898275      0.92316017
H       2.92429450      3.28846113      1.74408806
H       2.56689006      2.88361505      0.29248053
O       2.02378763      3.37995448      3.42899338
H       1.63459173      3.77651513      4.21827958
H       2.39749936      2.53252731      3.71105255
O       1.42838551      -2.3302011      7.45973601
H       1.35589072      -1.4113844      7.75650662
H       1.88400776      -2.2775910      6.61202844
O       -3.9693911      -0.5616852      5.01054885
H       -4.0484484      -0.1292458      4.15116522
H       -3.9168030      0.13075632      5.67925489
O       -1.4436289      2.39534285      5.65645987
H       -1.0228431      1.54792004      5.45655746
H       -2.1961571      2.18309039      6.22415466
O       0.22794192      0.59669230      2.58466600
H       0.09010822      1.49998212      2.27409161
H       0.96625186      0.21196892      2.09419924
O       1.81390715      -3.1019680      2.53726406
H       2.07109697      -4.0031661      2.36439910
H       0.83802154      -3.0809040      2.54158057
O       -0.8507958      -2.9005602      2.59960905
H       -1.2531270      -2.7900423      3.47215589
H       -1.2829834      -2.2630410      2.01810101
O       -3.5137942      1.30845519      7.16324341
H       -4.1922780      1.60563597      7.76324751
H       -2.9326277      0.71078761      7.66947771
O       -1.7772712      -0.3135701      8.44191620
H       -0.8739838      0.02886914      8.38717430
H       -1.7046129      -1.2617367      8.28410770
O       -0.2164259      -0.0763802      5.12861684
H       -0.8373236      -0.8188206      5.13452087
H       -0.0500367      0.17797459      4.20635386