75
 Ord_Energy   -276.9336240
O       -1.0911208      3.66100335      2.65791273
H       -1.7345793      3.30819941      2.02807283
H       -0.5860497      2.92342448      3.02188540
O       -2.9169952      5.52533436      -0.6137503
H       -2.8806111      6.19374275      0.08146973
H       -2.0536146      5.54760122      -1.0543738
O       4.36553812      6.58684063      0.72019839
H       3.99791384      6.42581177      -0.1676255
H       5.17115068      7.08174419      0.59772283
O       1.86086214      7.12524414      1.83294284
H       2.77856088      7.00727892      1.55581641
H       1.80116570      6.96812820      2.78437495
O       -0.3875621      5.50512886      -1.6319750
H       0.00751675      5.27099419      -0.7765507
H       0.02204728      6.32721853      -1.9257514
O       2.57225633      2.96153283      -0.0812397
H       1.92340398      3.61722088      0.21902075
H       2.69298649      3.10485888      -1.0258387
O       0.67404056      4.80940342      0.77953756
H       1.08432460      5.59027243      1.17353690
H       0.09594771      4.41431379      1.44403732
O       -2.4693913      7.46722937      1.37401605
H       -2.0408995      7.05643654      2.14721274
H       -3.0955956      8.09910679      1.71857285
O       -1.0089494      1.43865502      -1.0845392
H       -0.5933046      2.01462793      -1.7398151
H       -1.6700534      0.91623735      -1.5562239
O       -1.2645990      6.28034973      3.47356653
H       -1.2922844      5.32941151      3.28993225
H       -0.4133173      6.43342924      3.89761233
O       -2.7062592      2.95218420      0.54565996
H       -2.7863328      3.84145045      0.17408392
H       -2.0809958      2.45903087      -0.0060448
O       0.00588768      8.47652340      0.28192600
H       0.66289198      8.10225391      0.88747346
H       -0.8541644      8.18791866      0.60618317
O       0.94517273      0.92844594      0.89263672
H       1.63141572      1.51720691      0.54826528
H       0.23112181      0.96628273      0.24450801
O       -0.0782316      3.22181129      -3.0720465
H       -0.2152382      4.06170702      -2.6061363
H       -0.8978607      3.03727221      -3.5526855
O       0.94736069      7.88607836      -2.1602549
H       0.61439621      8.18613243      -1.2935829
H       0.86332822      8.62113857      -2.7606794
O       -3.1774382      0.31679186      -2.5065140
H       -3.8406631      0.81065738      -1.9916726
H       -3.5462050      -0.5446373      -2.6802687
O       2.28209615      3.92748809      4.00827456
H       1.78131938      3.11571240      3.87988234
H       2.99378633      3.92524266      3.35045505
O       -4.4837961      4.37937307      -2.5763528
H       -3.9902849      4.85672331      -1.8891795
H       -5.1069393      5.00030708      -2.9459085
O       -2.6043081      2.69836926      -4.0140671
H       -2.8198268      1.82731962      -3.6578016
H       -3.2422096      3.30502534      -3.6190958
O       0.62695473      1.62473726      3.47559166
H       0.59113741      0.85197371      4.03225136
H       0.75934625      1.30846250      2.56326962
O       2.62297797      3.61206603      -2.8449759
H       1.68675113      3.41601110      -3.0178899
H       3.12216902      3.19976044      -3.5458424
O       1.41586447      6.41519928      4.48363924
H       1.72833312      6.69290972      5.33976936
H       1.71192276      5.49307442      4.36192322
O       4.16071177      4.01018524      1.97817326
H       3.74639630      3.51857281      1.25598419
H       4.34726810      4.88210392      1.61182415
O       -4.8030123      1.95920336      -1.0745511
H       -4.2282919      2.21264768      -0.3394030
H       -4.8792271      2.75460696      -1.6166362
O       3.20934343      6.20204592      -1.7027217
H       3.01422358      5.36364126      -2.1364965
H       2.48398733      6.80214453      -1.9148396