33
 Ord_Energy   -104.4313510
O       -5.7942628      0.41164193      12.1679354
H       -5.4020366      0.05525489      12.9781322
H       -5.0752639      0.80806750      11.6604481
O       -7.0289325      2.80378437      13.1257305
H       -6.5731220      2.02053452      12.7871704
H       -7.8485016      2.46464753      13.5046158
O       -5.8068528      3.25696349      15.6762829
H       -6.2418694      3.21092629      14.8139973
H       -4.9143734      3.56886864      15.4905844
O       -2.7138032      1.46364939      13.6985760
H       -2.8314781      2.32111979      14.1283922
H       -3.3118395      0.84640098      14.1380491
O       -8.4020662      -0.5059404      12.1931667
H       -8.6524629      -0.9770714      11.4029226
H       -7.4733572      -0.2493710      12.0718851
O       -6.7211546      0.68321031      15.9648848
H       -6.3837108      1.58940125      16.0490513
H       -7.5670013      0.76068676      15.5102148
O       -4.6791930      -0.4163306      14.5973120
H       -5.4010796      -0.0560543      15.1436577
H       -4.4686155      -1.2753280      14.9529476
O       -9.0471687      1.14899802      14.2803240
H       -9.9777545      1.16155839      14.4878531
H       -8.9285612      0.51059252      13.5561552
O       -3.3005588      4.09692383      14.5720301
H       -3.7807936      4.23876667      13.7366648
H       -2.8041243      4.89283848      14.7421131
O       -3.5673883      1.77499926      11.1468000
H       -2.8760180      1.64959347      10.5029917
H       -3.1636402      1.64649034      12.0255060
O       -4.7213592      4.18391180      12.2320652
H       -5.6175980      3.89965820      12.4566364
H       -4.3434686      3.46817136      11.7059641