42
 Ord_Energy   -142.9237370
O       -0.4904437      0.78222102      -2.6787748
H       -0.9900871      0.52117026      -1.8929581
H       -0.7924307      0.20022000      -3.3869218
O       -3.4970727      -4.5772938      -0.8979703
H       -4.1913523      -4.9841175      -1.4103936
H       -3.1424505      -3.8501598      -1.4360773
O       -1.1288682      -1.3436442      -4.5205249
H       -0.2378452      -1.6934107      -4.3372602
H       -1.2388345      -1.3498041      -5.4672799
O       1.30234706      -2.2604570      -3.7212581
H       1.72778904      -1.5398898      -3.2402813
H       1.08268392      -2.9283661      -3.0565791
O       0.19137396      -3.7463970      -1.6154366
H       -0.6516220      -3.3526165      -1.8770686
H       -0.0378896      -4.5249896      -1.0887775
O       -2.7071032      -0.9497625      2.08673048
H       -3.0414662      -1.8584893      1.97646415
H       -3.2841980      -0.5162038      2.70906425
O       -1.5960607      -0.5141005      -0.4324447
H       -0.7044575      -0.8488737      -0.2547416
H       -2.0668752      -0.5346455      0.40950036
O       2.05990720      -0.0053529      -2.1031491
H       1.19342244      0.38036939      -2.3248403
H       2.70400715      0.69181812      -2.1910183
O       -0.1042016      -2.1572165      2.49869013
H       -0.9112220      -1.6297774      2.46395397
H       0.39810315      -1.9340658      1.70327127
O       -0.9793191      -4.7276048      2.63014340
H       -0.6909718      -5.1446480      3.43744254
H       -0.5853220      -3.8372149      2.61804032
O       -3.4123947      -3.5426576      1.75270569
H       -2.6723048      -4.0404233      2.12457323
H       -3.5513095      -3.8984077      0.86659741
O       -2.2916004      -2.4952573      -2.2364332
H       -2.0429740      -2.1415894      -3.0994730
H       -2.1581225      -1.7830255      -1.5928969
O       0.95874119      -1.5950398      -0.0417413
H       1.48345387      -1.0341229      -0.6253678
H       0.78445900      -2.4151399      -0.5278222
O       -0.9497260      -5.6857271      -0.0514287
H       -1.8491275      -5.4707450      -0.3274447
H       -0.8991919      -5.4485073      0.88358152