78
 Ord_Energy   -288.4294408
O       -4.2359909      -0.3919481      1.93162739
H       -3.2657575      -0.4727683      1.93713718
H       -4.5542742      -0.8576240      2.70064014
O       2.16977021      -1.8071432      0.18323871
H       1.66012983      -1.3649229      -0.5147718
H       2.42109295      -1.1267153      0.82470519
O       -2.5349783      2.53497939      -2.0597731
H       -2.0368362      3.22475574      -1.5952277
H       -3.4618532      2.59421792      -1.8008035
O       -5.1669093      2.33959791      -1.0972432
H       -6.0115260      2.67134520      -1.3892927
H       -5.2493943      1.37086864      -1.0358439
O       4.05059585      -2.5924718      -1.6073264
H       3.40564692      -2.3992770      -0.9047862
H       4.63066631      -3.2697271      -1.2693877
O       2.73767416      0.34150842      1.79023075
H       1.88914053      0.79028578      1.90013457
H       3.26963569      0.92563541      1.23494413
O       -1.5863645      -3.8420028      -1.5415596
H       -2.2591682      -3.1691947      -1.7403568
H       -2.0472059      -4.6731820      -1.4527589
O       -5.2401510      -0.3566851      -0.7506799
H       -4.9361149      -0.4810333      0.15807794
H       -4.7011342      -0.9343013      -1.3042790
O       0.00455457      -2.7671382      -3.6332057
H       -0.4536751      -3.2872239      -2.9604766
H       -0.6763520      -2.2888809      -4.1264166
O       -3.2410225      -1.7511466      -2.2509252
H       -3.0210909      -1.6178957      -3.1813028
H       -2.7392166      -1.0746990      -1.7648657
O       -1.3071906      1.27750193      -4.2413764
H       -0.3731136      1.42307947      -4.0437551
H       -1.7991300      1.78446009      -3.5815628
O       -2.0778929      -1.2393511      -4.7808528
H       -1.8040017      -0.3188478      -4.6094921
H       -2.4188649      -1.2612060      -5.6707385
O       -1.5413916      -0.4783362      1.74545562
H       -0.8584820      0.20408928      1.79505368
H       -1.1203905      -1.3240039      1.52389870
O       4.62559921      0.19511765      -2.0223248
H       4.52986026      -0.7477624      -1.8438623
H       4.33505224      0.31846876      -2.9338854
O       3.52547438      0.27200127      -4.6601858
H       3.23452136      -0.6522219      -4.5553726
H       3.96345762      0.32858013      -5.5047844
O       -3.9824517      2.41786275      1.49716390
H       -4.4118984      2.52730900      0.64040343
H       -4.1305578      1.49780929      1.74636602
O       1.35218368      1.45153224      -3.3198498
H       2.10195517      1.21564420      -3.8777254
H       1.17173669      0.66494498      -2.7791267
O       1.39212831      2.69158040      -0.8213095
H       1.35132424      2.37072187      -1.7325228
H       2.31184907      2.58613484      -0.5470134
O       2.75929096      -2.2810898      -4.1387715
H       3.18656055      -2.4981223      -3.2997648
H       1.84077581      -2.5675523      -4.0639674
O       -0.9611435      4.23754820      -0.6138252
H       -0.0785386      3.85260135      -0.7042737
H       -1.1857552      4.17103463      0.32185793
O       -1.7604655      0.12416303      -0.9705744
H       -1.7536376      0.06507147      -0.0086032
H       -2.0135116      1.01431569      -1.2484821
O       -1.6436148      3.63910601      2.10767142
H       -1.7929850      4.24921466      2.82477409
H       -2.5000025      3.21750457      1.91413890
O       4.04036494      2.03119917      -0.1130163
H       4.81780092      2.56575023      0.02481912
H       4.26778307      1.37954536      -0.8001200
O       -0.3730485      -2.7912770      0.89046074
H       0.55822173      -2.5954285      0.71884009
H       -0.7234506      -3.1861352      0.08470661
O       0.23041387      1.63369234      1.53436293
H       0.57129852      1.91514088      0.67373407
H       -0.3486378      2.34328470      1.84157261
O       0.67101804      -0.7354976      -1.8336238
H       0.49989846      -1.4377433      -2.4735473
H       -0.1866645      -0.4200248      -1.5123326