39
 Ord_Energy   -129.7266080
O       3.11703920      7.41687822      -7.9317164
H       2.22464347      7.47637081      -8.3185577
H       3.47893047      6.57608461      -8.1975336
O       0.04359239      11.1434393      -6.9847078
H       0.92406619      11.1494331      -6.5791192
H       -0.3654784      10.3093996      -6.7254476
O       0.94099736      10.5760994      -9.5803461
H       0.85254872      11.3795404      -10.104191
H       0.57397950      10.7854767      -8.7079467
O       3.41338015      13.5362864      -11.229841
H       3.56156707      13.4072857      -12.163686
H       2.45724750      13.4575920      -11.096144
O       0.68851036      13.2198019      -10.622806
H       0.66132921      13.4801846      -9.6835517
H       -0.0882846      13.5924444      -11.031371
O       3.52406192      10.1412144      -8.5620307
H       3.56992483      9.19144535      -8.3993310
H       2.68763852      10.3006859      -9.0233402
O       0.62335390      13.7286940      -7.9647870
H       0.23805937      12.9453344      -7.5504703
H       1.46486974      13.8787155      -7.5154972
O       3.17491841      13.8361721      -6.6816968
H       3.65755701      14.5536327      -6.2811341
H       3.70700836      13.5248508      -7.4378523
O       0.59664524      7.86023903      -8.8651466
H       0.63512605      8.72326088      -9.2990684
H       0.05432631      7.98493338      -8.0759010
O       -0.5868219      8.47358799      -6.3183603
H       -1.1792466      8.01445770      -5.7294936
H       0.30504268      8.40587521      -5.9311533
O       2.00677228      8.43499756      -5.4853372
H       2.31436968      9.35100365      -5.4665064
H       2.49446845      8.00741863      -6.2008981
O       4.50328588      12.7871799      -8.7788438
H       4.22326994      13.0923147      -9.6531429
H       4.35163689      11.8336029      -8.7675361
O       2.68357611      11.1224661      -6.0756917
H       3.05459905      10.7774200      -6.9019746
H       2.88594770      12.0658531      -6.0701131