36
 Ord_Energy   -116.9220890
O       1.37238669      -6.9596457      -17.180189
H       2.01339269      -7.6173796      -17.493104
H       0.80171037      -7.4069571      -16.559680
O       5.06552219      -4.2419934      -22.733570
H       4.41228104      -3.6122081      -22.379102
H       5.64717388      -3.7455174      -23.302616
O       5.33503342      -6.7081837      -17.620891
H       5.52498817      -6.3259267      -18.487644
H       4.76352072      -7.4645128      -17.793737
O       3.44177747      -4.9509668      -16.531984
H       2.67892027      -5.5372300      -16.550682
H       4.19626331      -5.5141744      -16.764270
O       2.96762109      -7.3062100      -20.694973
H       2.98237848      -7.0994744      -21.640670
H       2.33883238      -6.6845164      -20.301666
O       3.10776496      -2.7269890      -21.597917
H       3.21084690      -2.8623311      -20.645477
H       2.27430916      -3.1513216      -21.835340
O       5.20993853      -5.6097054      -20.260229
H       4.50977087      -6.2552628      -20.428735
H       5.36480999      -5.1663465      -21.103529
O       3.27090192      -8.6652593      -18.354362
H       3.45896673      -9.5964784      -18.440496
H       3.20023417      -8.3083658      -19.257057
O       0.83814561      -4.4300618      -22.083231
H       0.84669054      -4.7761149      -21.175630
H       -0.0744727      -4.2577953      -22.301769
O       2.92728233      -6.1270794      -23.159681
H       3.69707966      -5.5442204      -23.170290
H       2.17151666      -5.5575032      -22.967355
O       3.47894955      -3.7639620      -19.008764
H       3.47395325      -3.9756422      -18.063692
H       4.16185188      -4.3245472      -19.403762
O       1.28771019      -5.3803496      -19.523439
H       2.00301290      -4.7553491      -19.324930
H       1.11559153      -5.8668956      -18.708795