42
 Ord_Energy   -142.3952480
O       -3.0377299      2.52428603      -4.2887210
H       -2.4645743      1.95201969      -4.8126540
H       -2.5717635      2.68558168      -3.4565134
O       -1.1143579      3.69126368      -7.1895256
H       -0.4055711      4.33449078      -7.0724639
H       -1.9095039      4.10925341      -6.8333306
O       0.57447004      2.03369236      -3.8764977
H       -0.1106001      2.36667228      -3.2778625
H       0.11214922      1.64560080      -4.6290402
O       -1.0663112      1.25934899      -5.9959092
H       -1.0471829      2.09523797      -6.4965043
H       -1.1543687      0.55651253      -6.6335320
O       0.18487915      2.52938008      0.14980236
H       0.91871452      2.18019366      -0.3871016
H       0.12458249      1.98011529      0.92653948
O       -3.3279209      4.78840780      -5.7555294
H       -4.2430701      4.93577147      -5.9783673
H       -3.3013207      3.99777389      -5.1878323
O       0.75506675      5.75569725      -6.5142664
H       1.08115649      6.43227768      -7.1013732
H       0.02715757      6.15338564      -6.0006966
O       1.22916102      5.19472218      -0.2799238
H       0.86107022      4.35591841      0.02442912
H       2.05109072      4.96816111      -0.7333793
O       -1.2971231      6.61396122      -4.9809474
H       -1.0515886      6.41644955      -4.0666914
H       -2.0691888      6.07013178      -5.1836233
O       1.82019782      4.47890234      -4.2566576
H       1.57984746      4.89231157      -5.0947570
H       1.42552090      3.59383011      -4.2395277
O       -1.3385218      3.13443136      -2.1479847
H       -1.0711642      4.05309820      -2.2970314
H       -0.9819541      2.88143229      -1.2876337
O       2.17550445      1.79016626      -1.5582172
H       2.73401356      2.57218933      -1.6531546
H       1.73023355      1.68258357      -2.4096148
O       -0.1856237      5.63352871      -2.6041801
H       0.21806525      5.67084408      -1.7251159
H       0.50647032      5.30361032      -3.1937315
O       3.39669871      4.34029341      -2.0018954
H       4.28579378      4.66230392      -2.1269402
H       2.93518949      4.45760345      -2.8493650