60
 Ord_Energy   -214.8855900
O       0.32879409      5.04525328      -4.2286338
H       0.51510060      4.10668612      -4.0940761
H       0.93983859      5.55423594      -3.6803953
O       1.78663099      6.60884809      -2.4107086
H       1.58004153      6.15885067      -1.5715893
H       2.70271659      6.86867285      -2.3635661
O       -4.7641749      7.98209572      -0.8618961
H       -4.7782535      7.81230068      -1.8221472
H       -5.3981127      8.67271996      -0.6921961
O       -1.9835230      1.79790461      -4.5330214
H       -2.5362925      1.60979593      -3.7592365
H       -2.4980130      2.40535235      -5.0753417
O       -4.5938091      7.28880692      -3.4557883
H       -4.5361003      6.32613087      -3.4591486
H       -3.8277859      7.61985064      -3.9415538
O       -3.6308066      3.80141616      -5.7478289
H       -2.9748814      4.51301956      -5.8652091
H       -4.1253743      3.74130392      -6.5603270
O       1.14315808      5.27999544      -0.1424823
H       0.80278724      4.41123772      -0.4001627
H       0.53255147      5.61060381      0.52631038
O       -1.6851559      5.05000448      -2.2425036
H       -1.2660864      4.35796785      -1.7146161
H       -1.1025482      5.18676138      -2.9998269
O       -2.8347899      4.05958176      1.13457596
H       -2.2117512      4.76006174      1.35166419
H       -3.5790593      4.46730900      0.66701490
O       0.51746005      2.27517390      -3.7284302
H       -0.3774537      2.06923771      -4.0596175
H       1.10133874      1.60604906      -4.0739369
O       -4.2250404      4.44468451      -3.0860273
H       -4.1545591      4.16143751      -4.0074291
H       -3.3211379      4.63807249      -2.7862303
O       -4.8813858      5.15509605      -0.3825570
H       -4.9604382      6.11518383      -0.4261829
H       -4.8502755      4.85665417      -1.2994149
O       -2.2196106      1.64614236      0.17384222
H       -2.3238444      0.97343433      0.84058958
H       -2.4690296      2.49536395      0.58554757
O       -3.6115021      1.66195416      -2.3145036
H       -3.9869630      2.54340649      -2.4111650
H       -3.2078931      1.62832928      -1.4383676
O       -0.9610849      6.22867870      1.54179299
H       -1.3446635      6.72780132      0.79974765
H       -0.9570046      6.81340885      2.29540038
O       -1.7793998      5.74802637      -5.8864712
H       -0.9568622      5.49878311      -5.4425268
H       -1.9699066      6.64894199      -5.5989298
O       -0.4509924      8.37023735      -2.7515060
H       0.36366916      7.86066294      -2.6746332
H       -0.9650533      8.16436100      -1.9586763
O       -0.1349398      3.00170159      -1.0871083
H       -0.7668242      2.40698385      -0.6631435
H       0.11692687      2.62632751      -1.9404563
O       -2.0449147      7.34016466      -0.6946727
H       -1.9869167      6.53405380      -1.2318141
H       -2.9668014      7.62619066      -0.6942033
O       -2.2740759      8.29141045      -4.7597661
H       -2.2556791      9.12297344      -5.2266326
H       -1.5900825      8.34461498      -4.0691380