51
 Ord_Energy   -177.8949740
O       1.56901920      2.12135410      -4.1854276
H       0.87576383      1.82428265      -4.8019785
H       1.58355260      3.07361770      -4.2316594
O       -2.7893993      -1.8822971      -2.1609838
H       -3.6450901      -2.0972993      -1.7998151
H       -2.3873090      -2.7224767      -2.4500637
O       1.39437985      0.32665467      -2.0208516
H       1.42939198      1.05661333      -2.6539657
H       2.28475547      -0.0474032      -1.9707814
O       -0.5044080      -4.6971755      -5.5382962
H       0.45353052      -4.5335898      -5.5872755
H       -0.6500762      -5.5653281      -5.9068231
O       2.15602612      -4.1350951      -5.6000518
H       2.45743561      -4.0403046      -4.6859207
H       2.30277920      -3.2772598      -6.0199866
O       2.55523586      -3.4258976      -2.9212238
H       1.99699795      -3.6654362      -2.1689322
H       3.08744335      -2.6626465      -2.6615581
O       -1.5169619      -2.3588907      -6.8547768
H       -1.2003786      -3.1858739      -6.4725656
H       -1.8341436      -1.8316308      -6.1083178
O       0.64443237      -3.8924939      -0.9495446
H       0.62164175      -4.3604216      -0.1191618
H       0.30006382      -2.9971237      -0.7778890
O       -1.4737942      -4.1415681      -2.9023475
H       -1.1473070      -4.3324904      -3.7902922
H       -0.7214881      -4.2113523      -2.3029615
O       -0.3631041      1.21679699      -5.8537573
H       -0.1734197      0.75198937      -6.6770901
H       -1.0145450      0.67056859      -5.3926062
O       -1.8392756      -0.7890668      -4.5647339
H       -0.9448258      -1.1335512      -4.4033103
H       -2.3437504      -1.0193891      -3.7773098
O       -0.3892431      -1.4034110      -0.6506402
H       -1.2325925      -1.4043363      -1.1205909
H       0.14515014      -0.6923091      -1.0268145
O       0.72915119      -1.5561128      -3.9911315
H       0.90668654      -0.8707193      -3.3339586
H       1.22200036      -2.3329229      -3.7016902
O       2.17633390      -1.4037150      -6.3695387
H       1.62102926      -1.3921556      -5.5736808
H       1.60440636      -1.1114777      -7.0890488
O       3.70326042      0.28098637      -4.7404885
H       3.33413243      -0.2907484      -5.4278998
H       3.06477976      0.99552733      -4.6240630
O       3.89874673      -0.9776637      -2.3554687
H       3.91785765      -0.5515918      -3.2324805
H       4.75934076      -0.8461020      -1.9667309
O       0.10603321      -0.5594735      -8.0736579
H       -0.0905721      -0.4764649      -9.0024251
H       -0.4947322      -1.2403696      -7.7190275