33
 Ord_Energy   -104.3502430
O       -8.0910186      0.11216658      12.7902412
H       -7.2444443      -0.3714636      12.7553101
H       -8.7715482      -0.5144388      12.5612497
O       -5.7131013      -1.1683672      12.8950081
H       -5.7296266      -1.5151996      13.8007708
H       -4.9013419      -0.6523400      12.8362675
O       -5.1978492      2.51279950      13.9575291
H       -5.8706221      2.72021127      13.2938166
H       -4.5975823      1.86409616      13.5648422
O       -5.6357145      1.34620392      17.7660370
H       -6.3283443      1.22181904      17.1036396
H       -5.0758209      2.05409503      17.4220791
O       -2.6482560      0.63607115      15.6977844
H       -3.0141444      0.01978226      16.3451786
H       -2.9254548      1.51358521      15.9884453
O       -4.0456018      -0.8761902      17.6475029
H       -4.6301469      -0.1119872      17.7990265
H       -3.8683686      -1.2601050      18.5018158
O       -5.8990984      -1.6565054      15.6003304
H       -6.3600282      -0.8069467      15.6147890
H       -5.2220010      -1.5846651      16.2820759
O       -3.9457495      3.13831830      16.3084087
H       -3.6784126      4.05099010      16.3776245
H       -4.4065380      3.04498506      15.4565096
O       -7.2460436      2.69461823      12.1364880
H       -7.6213669      1.81042516      12.2726498
H       -7.9313588      3.21415710      11.7241859
O       -3.4108576      0.52596545      13.0962296
H       -3.0803194      0.47048348      14.0109539
H       -2.6453466      0.53991872      12.5280132
O       -7.1144828      0.93617553      15.3771963
H       -6.4259896      1.47036028      14.9566908
H       -7.6853885      0.66217136      14.6508760