15
 Ord_Energy   -31.7043648
O       24.0788269      18.1226578      3.42180634
H       24.5477161      17.5973568      4.06644773
H       24.6683559      18.8635654      3.20688272
O       24.3580818      16.0870171      -1.1514142
H       24.9016743      15.9223347      -1.9186803
H       23.5811749      16.5690174      -1.4780278
O       22.2855587      17.9396992      -1.5135653
H       22.7663937      18.2515411      -0.7299932
H       21.3615894      17.9557667      -1.2737211
O       25.6089344      20.0542240      2.08853388
H       25.1867714      19.5414524      1.38052630
H       25.4946938      20.9709587      1.84807694
O       24.0710831      18.2221355      0.62851745
H       23.9076977      17.9904099      1.55355704
H       24.3689346      17.4223480      0.17289273