63
 Ord_Energy   -227.0126222
O       0.12167439      -2.4597928      -2.1647945
H       -0.7126981      -2.8697776      -1.9099003
H       0.76152733      -3.1805818      -2.2424194
O       -2.1173155      -2.9557663      1.42947686
H       -2.5435915      -3.0066026      2.29526145
H       -1.4174013      -2.2891366      1.49723627
O       -2.9600583      -3.1289136      4.07980059
H       -3.8054343      -3.1132194      4.52065893
H       -2.4084594      -3.7747133      4.55749385
O       -1.2838550      -4.7534039      5.45589135
H       -0.7908672      -5.4878780      5.06825298
H       -0.6236423      -4.1684229      5.84804079
O       -0.4164333      -5.1701981      1.75217979
H       -1.0764373      -4.4679779      1.70405243
H       -0.3182872      -5.5268072      0.85951877
O       0.69419914      -2.8131709      6.21878127
H       0.81597073      -2.3478191      7.04224669
H       0.23721842      -2.2000540      5.61654395
O       4.04512035      -6.0217671      2.95417736
H       3.48118435      -6.8006885      2.87527293
H       3.66195373      -5.4955264      3.66535851
O       -0.7748416      -1.2811137      4.50344175
H       -1.5964605      -1.7751630      4.39526342
H       -0.4722768      -1.0780127      3.60909493
O       3.78188932      -6.6872987      -1.4704124
H       4.48281563      -7.0809751      -1.9817720
H       4.20588771      -6.1498678      -0.7745476
O       2.00182514      -4.5324164      -1.8014796
H       2.39910302      -3.9355685      -1.1499726
H       2.61240302      -5.2747197      -1.8873616
O       1.65889347      -7.8213053      0.04063835
H       0.89336007      -7.3565141      -0.3156366
H       2.41387355      -7.5238560      -0.4839346
O       1.66020456      -3.4289463      2.32290308
H       2.01979920      -3.7236321      3.16775860
H       1.00334200      -4.0896748      2.06339543
O       1.33855797      -0.5876452      -0.6207468
H       1.50715834      0.20674621      -1.1202944
H       0.86568939      -1.1983875      -1.2145808
O       0.05736101      -1.2619715      1.80281391
H       0.66157501      -1.9745108      2.06585172
H       0.44081086      -0.8704275      1.00954140
O       2.33349655      -4.5827771      4.75235897
H       1.68751120      -5.2865694      4.58879631
H       1.90440770      -3.9545467      5.34640072
O       -0.2419379      -5.8999389      -0.9030797
H       -1.0013399      -5.3449103      -1.1157980
H       0.53832558      -5.4293286      -1.2348503
O       2.18083563      -8.2119040      2.67930864
H       2.43553381      -9.1240829      2.79147131
H       1.96926763      -8.0962965      1.73593640
O       3.08688017      -2.7753627      0.07939431
H       2.69011774      -1.9333887      -0.1689074
H       2.66084796      -3.0322836      0.91230585
O       -2.2096447      -3.8378225      -1.1853638
H       -2.2699639      -3.5019341      -0.2757158
H       -3.0918338      -3.8080221      -1.5478225
O       0.40293032      -6.4969162      4.01626355
H       0.03612852      -6.0722987      3.22491596
H       0.96830145      -7.2059826      3.68573000
O       4.76609332      -5.0855975      0.44390533
H       4.57454299      -5.3790877      1.34770311
H       4.40163100      -4.1984522      0.35278781