54
 Ord_Energy   -189.9690400
O       -6.5151071      11.7674179      -0.2671487
H       -6.1282472      10.9908247      0.15488696
H       -7.3996691      11.5021486      -0.5511537
O       -7.6827430      7.33366394      -3.1989142
H       -7.7689533      6.72113466      -2.4606888
H       -6.9943113      7.96580362      -2.9334712
O       -1.5412581      9.04265404      -2.3494830
H       -2.0140168      9.63360977      -1.7361279
H       -0.6330043      9.01582050      -2.0615487
O       -3.8567595      7.15765333      -5.4307298
H       -4.8019485      7.35166597      -5.5646600
H       -3.6011517      6.55408382      -6.1229529
O       -3.0082469      10.6206770      -0.7178170
H       -3.4374287      11.3922215      -1.1068279
H       -3.6975905      10.1447182      -0.2392001
O       -5.0332622      11.2121029      -4.1828489
H       -4.8442955      11.8301983      -3.4664232
H       -4.2013125      10.7947369      -4.4585909
O       -9.0391540      10.7579756      -1.0488295
H       -9.8901176      11.1614923      -0.8980630
H       -9.0386018      10.4450722      -1.9705930
O       -6.4810028      7.74741077      -5.6893520
H       -6.9696998      7.43393755      -4.9155211
H       -6.7502846      8.66518879      -5.8124485
O       -5.6287202      9.03176975      -2.5016121
H       -5.4442768      9.77657318      -3.0846247
H       -4.8949170      8.40484810      -2.5760672
O       -9.0098629      9.76846600      -3.5654857
H       -8.4980068      10.1074877      -4.3089265
H       -8.7392177      8.84540272      -3.4629147
O       -5.3431582      9.21368980      0.21176043
H       -5.0833640      8.28915215      0.33908710
H       -5.5390515      9.27514935      -0.7396065
O       -7.6855993      5.98457575      -0.7186685
H       -7.9275350      6.83087778      -0.3007798
H       -8.2006301      5.30905008      -0.2853566
O       -8.1157779      8.44783401      0.36097038
H       -8.5346584      9.18985176      -0.0918852
H       -7.2037987      8.72198200      0.51510292
O       -3.5811910      7.12890816      -2.6289858
H       -3.6485853      6.97499895      -3.5806624
H       -2.7984941      7.68024492      -2.4919481
O       -2.8186864      9.75562000      -4.8059268
H       -2.2729051      9.57483482      -4.0305366
H       -3.1122303      8.89376450      -5.1277957
O       -4.8821482      6.52752304      -0.1427297
H       -5.7663145      6.20620060      -0.3577204
H       -4.3978610      6.55839062      -0.9782944
O       -4.5743856      12.7374210      -1.8731669
H       -4.4189987      13.6628990      -1.7041286
H       -5.3198452      12.4682407      -1.3057378
O       -7.2183623      10.5301189      -5.6678195
H       -7.3353695      11.1167841      -6.4107651
H       -6.4446992      10.8535280      -5.1750602