48
 Ord_Energy   -165.7569890
O       3.15917206      9.22992420      8.82773113
H       2.54038644      9.86852264      9.20306206
H       3.08299756      9.32371044      7.86939812
O       -2.9384238      6.69226933      7.51787615
H       -2.5843293      7.55959225      7.28315020
H       -2.7440619      6.56906509      8.45870113
O       0.40569246      11.0505581      6.95232964
H       1.16298211      10.6011009      6.55726290
H       0.61250156      11.1351671      7.89204836
O       1.66735649      6.92691517      8.94403458
H       1.38113034      6.95405531      8.02023411
H       2.33713841      7.62001848      9.03219414
O       -4.4811964      4.33233833      7.73238611
H       -3.9092774      3.69407272      7.28822470
H       -4.1316213      5.20505524      7.50760937
O       -4.0141758      4.07893181      10.4071522
H       -4.2892532      4.14968014      9.47527695
H       -4.7910232      3.84652972      10.9083290
O       0.00356973      4.71220446      9.18831921
H       -0.2656182      4.73322678      8.25815678
H       0.73915696      5.33295059      9.26777840
O       -1.7782924      2.53201818      9.44753170
H       -1.0371947      3.14872289      9.51690006
H       -2.5140898      2.94649172      9.91504478
O       -1.3282184      8.94851875      7.29565477
H       -0.8862982      9.77355480      7.04909039
H       -1.1234664      8.81011868      8.23106480
O       2.48571706      9.27300262      6.02429867
H       1.90781951      8.49300671      6.00818205
H       3.00230074      9.24625015      5.22240210
O       -0.4803559      8.41226864      9.94007206
H       0.29040188      7.88706112      9.67518520
H       -1.1519730      7.78034115      10.2251625
O       0.92999071      10.8037920      9.77701473
H       0.37050903      10.0305843      9.95519543
H       0.82538491      11.3931408      10.5202093
O       -2.1565942      6.18187380      10.1796408
H       -1.3874175      5.65099669      9.92189884
H       -2.8402855      5.55296087      10.4406776
O       -2.4256527      2.53915334      6.79846239
H       -2.4568204      1.66813087      6.41241884
H       -2.1822421      2.42516088      7.73484993
O       0.63840228      7.21586704      6.32542086
H       0.21808906      6.35665560      6.19591808
H       -0.0690812      7.82748175      6.58129168
O       -0.9823644      4.94387531      6.55563688
H       -1.3937435      4.07736111      6.45063591
H       -1.6954356      5.55137014      6.80538511