75
 Ord_Energy   -277.3291630
O       -0.9366958      3.72955894      2.73472619
H       -0.4302784      2.97335887      3.05713987
H       -1.6378266      3.40864992      2.15161610
O       -2.8911933      5.78352451      -0.2141623
H       -2.0649187      5.81029892      -0.7194698
H       -2.8057539      6.45341110      0.47481134
O       4.44481325      6.71958256      0.69772005
H       5.23871994      7.22453785      0.54374993
H       4.02697945      6.58323431      -0.1717227
O       2.00144410      7.21368647      1.95692658
H       1.98481572      7.02632046      2.90445805
H       2.90528870      7.10634518      1.63382471
O       -0.4400352      5.71991110      -1.4510600
H       0.00752312      5.45741081      -0.6302268
H       -0.0456373      6.55042171      -1.7419420
O       2.64717078      3.12756801      -0.1113252
H       2.00063658      3.76234794      0.23540103
H       2.70273232      3.28638029      -1.0591936
O       0.77010363      4.94006729      0.86303353
H       0.20897511      4.52470446      1.53006685
H       1.19417775      5.70669985      1.27009761
O       -2.3053143      7.69380903      1.77534068
H       -1.8593857      7.21557140      2.49808216
H       -2.9113059      8.30411148      2.18783927
O       -0.9623585      1.68034995      -0.7987518
H       -0.6210354      2.25380015      -1.4971629
H       -1.5387542      2.22439051      -0.2440812
O       -1.0494892      6.30811071      3.72106838
H       -1.0899651      5.37172699      3.47784066
H       -0.1766046      6.43661118      4.10838509
O       -2.7799565      3.17420650      0.75866467
H       -3.5845775      2.73704410      0.45528248
H       -2.8355739      4.09370518      0.45950684
O       0.10548494      8.64701748      0.53694606
H       0.78453279      8.24127865      1.09586298
H       -0.7424998      8.38619328      0.91320586
O       1.16686678      0.99928266      0.90524310
H       1.81413388      1.62111175      0.54504651
H       0.39772463      1.07697654      0.32593924
O       -0.2547169      3.44671154      -2.9114403
H       -1.0647275      3.30562758      -3.4163916
H       -0.3678451      4.28498697      -2.4338219
O       0.88062507      8.11181259      -1.9726759
H       0.60470724      8.38786507      -1.0782446
H       0.76168281      8.86460686      -2.5445072
O       -3.1956064      0.85622990      -2.3049311
H       -3.0890080      1.48561120      -3.0285220
H       -2.3789494      0.92154640      -1.7901524
O       2.50438070      3.95214868      4.01255655
H       3.18798304      3.97181249      3.32585979
H       1.98848498      3.15172529      3.87368202
O       -4.3536028      4.35356331      -2.1663363
H       -4.7193503      3.63473916      -1.6357981
H       -3.9614667      4.97291946      -1.5371768
O       -2.8093667      3.12538528      -4.0418138
H       -3.3623266      3.62461066      -3.4138708
H       -3.1773016      3.27479959      -4.9086890
O       0.80137783      1.68178332      3.48159742
H       0.78941190      0.90839744      4.03839302
H       0.95921528      1.37087297      2.57146502
O       2.47259259      3.84850383      -2.8548040
H       1.52747917      3.65230322      -2.9631249
H       2.92164469      3.44541764      -3.5941488
O       1.67228079      6.42310143      4.60464048
H       1.96117759      5.50506926      4.44145966
H       2.02603555      6.67590523      5.45235252
O       4.30372000      4.11789227      1.91513145
H       4.47589874      4.99938250      1.56521642
H       3.86502004      3.64626074      1.19382668
O       -4.9634985      2.02130580      -0.5989535
H       -5.7324128      1.48973453      -0.4137011
H       -4.4044065      1.50816071      -1.2099432
O       3.15303969      6.40767527      -1.6716777
H       2.92464709      5.58189440      -2.1129131
H       2.42211342      7.01819754      -1.8283661