30
 Ord_Energy   -92.8773651
O       5.86668682      4.84488630      8.49181271
H       6.34017944      4.14612818      8.02101612
H       5.00943756      4.91737366      8.05248260
O       5.19693279      7.24212265      5.77308512
H       5.62773418      6.83447981      5.01027584
H       5.89121819      7.36239004      6.43306398
O       5.09616375      3.53583407      4.99985790
H       4.47334051      4.01117182      5.56440163
H       5.53262472      4.21401834      4.46895075
O       10.8895245      4.34174395      6.58023500
H       11.7847738      4.16200638      6.30537891
H       10.5502405      3.50954461      6.94983625
O       9.63769722      2.06775522      7.52418852
H       8.73721504      2.30760574      7.24934816
H       9.53694439      1.46843076      8.25908566
O       7.25877571      3.16543770      6.66917562
H       7.72956896      3.95151544      6.35886192
H       6.48729134      3.08141088      6.09111547
O       8.55133629      5.53758764      5.79228878
H       9.43606949      5.21933746      6.02338696
H       8.24911976      6.13070679      6.49324942
O       3.61910510      5.25031424      6.77752161
H       4.08517218      6.02271986      6.41093302
H       2.70082402      5.49404192      6.85503817
O       6.63063431      5.70862532      3.84224224
H       6.98308945      5.84407282      2.96649194
H       7.39261818      5.64275169      4.44325542
O       7.26388264      7.05911398      7.77036381
H       6.77641010      6.29730463      8.13362122
H       7.52884007      7.59735966      8.51090431