45
 Ord_Energy   -153.3233180
O       -0.5926352      8.39199924      8.87980556
H       0.02799999      7.70533180      9.16747093
H       -1.3275805      8.37694263      9.50547314
O       2.54458809      8.60921097      11.3905563
H       2.06653500      9.33229828      10.9575653
H       2.27341628      8.61369324      12.3160152
O       1.22269905      6.60562563      9.96064281
H       1.86274421      6.24884558      9.33289814
H       1.70028484      7.23828983      10.5170031
O       2.79673100      7.93551111      6.33207369
H       3.42706156      8.62195969      6.58751392
H       1.93670380      8.37059116      6.28557634
O       -0.8346188      6.00413799      11.7824812
H       -1.4477410      6.71474075      11.5600576
H       -0.1231539      6.05453634      11.1296663
O       4.52483463      9.87632370      7.49086571
H       5.40256071      10.1901312      7.29121399
H       4.60573721      9.28954315      8.26381397
O       -0.6431129      9.99295139      12.3999624
H       -0.0123692      9.59919453      13.0143576
H       -0.1130172      10.3725023      11.6852713
O       3.22265530      5.95190239      8.12578678
H       3.04806447      6.60564661      7.42450809
H       3.56514931      5.17214727      7.69799662
O       4.58077431      8.08380604      9.53236198
H       4.24489641      7.26893902      9.14004612
H       3.99213743      8.28563213      10.2725544
O       0.91528028      10.4606924      10.1139650
H       0.35381219      9.79825306      9.68923759
H       1.36602938      10.9203911      9.39197159
O       -2.3435051      8.34659576      11.0743046
H       -3.2529871      8.55538177      11.2685299
H       -1.7957489      8.94920254      11.6097336
O       1.39533186      8.70325661      13.9659510
H       1.73491335      9.01696682      14.7999115
H       1.01168060      7.82373190      14.1298532
O       0.33774799      9.36077309      6.47868538
H       -0.3641626      9.50208664      5.84829187
H       -0.0767981      9.00614929      7.28281403
O       2.07350373      11.2974672      7.77344799
H       2.95388579      10.9121647      7.67545319
H       1.49045229      10.7610207      7.22240448
O       0.26172483      6.26348639      14.2586899
H       -0.1647762      6.11079979      13.3975878
H       0.20468172      5.43868780      14.7322941