30
 Ord_Energy   -93.9319229
O       8.17678547      2.92095613      3.75843453
H       7.62645102      3.41841412      4.39345932
H       8.58041000      3.56231189      3.18043804
O       6.63931227      4.08074236      5.62519789
H       5.85594893      3.50983119      5.60842562
H       7.04649973      3.96073699      6.49175024
O       8.02562237      3.39791870      8.01280880
H       7.61933613      2.56061244      8.30014229
H       8.23857498      3.88515830      8.80383492
O       8.86206341      -0.5545200      6.99814987
H       9.16835690      0.29428112      6.63203192
H       9.64188671      -1.0565360      7.21842003
O       6.46075249      -1.0879613      5.59694862
H       6.49041033      -0.5229514      4.81438255
H       7.32419062      -1.0053314      6.02313757
O       6.40258503      0.79690635      3.46154308
H       6.20554304      0.66590440      2.53688025
H       7.06610203      1.50327492      3.50643730
O       4.66935825      2.14474487      5.38398886
H       4.56524324      1.51148379      6.10473728
H       5.11037064      1.65770137      4.67793322
O       4.68934679      0.03919598      7.32435608
H       3.99075556      -0.5563936      7.58121347
H       5.26528025      -0.4503635      6.70906639
O       9.52846336      1.91657281      6.09085989
H       9.13580799      2.50376081      6.75078440
H       9.18243885      2.21100545      5.24060917
O       7.03715897      0.94905978      8.63380051
H       7.66136837      0.34637398      8.21027851
H       6.16554117      0.69517028      8.30491734