27
 Ord_Energy   -82.7599945
O       31.8542595      -19.874237      12.2066231
H       32.2723923      -20.645940      11.8332157
H       32.5397301      -19.190420      12.2491207
O       32.1912155      -14.233369      14.2733774
H       32.3001900      -13.325244      14.5406437
H       31.3172131      -14.518983      14.5963736
O       33.6837158      -17.771030      12.4678259
H       33.5739021      -17.478731      13.3910789
H       34.6054077      -17.655735      12.2527637
O       33.2423286      -16.797346      14.9550180
H       33.0127449      -15.870642      14.8087721
H       32.4888916      -17.184181      15.4200068
O       30.8266048      -17.771461      16.0926151
H       30.5989017      -18.298160      16.8533363
H       30.4644814      -18.231420      15.3126354
O       31.7390213      -15.717181      11.8706608
H       31.9623108      -15.107222      12.5862122
H       32.3885803      -16.427974      11.9235973
O       29.8424911      -18.841804      13.8244724
H       29.5079689      -18.094875      13.3126936
H       30.4847622      -19.291004      13.2570610
O       29.1717758      -16.417131      12.4868841
H       30.0662098      -16.185941      12.1794634
H       28.5732784      -16.201549      11.7770176
O       29.8229771      -15.315841      15.0435562
H       29.4373055      -15.636592      14.2177668
H       30.0839901      -16.106525      15.5340052