66
 Ord_Energy   -238.7534940
O       1.23106372      -6.8698411      -6.9094018
H       1.79042721      -6.9310107      -6.1134691
H       1.76329780      -7.1652345      -7.6430835
O       -1.1975442      -7.6091618      -5.7487616
H       -0.4017290      -7.4689807      -6.2777662
H       -1.0056408      -7.2482566      -4.8671712
O       -3.3259820      -4.1296486      -3.5048923
H       -2.9901340      -4.3975415      -4.3721227
H       -2.7506125      -3.4264195      -3.1794123
O       -2.8756296      -6.2111654      -1.7564473
H       -3.4167294      -6.9095788      -2.1558094
H       -3.0609433      -5.4153566      -2.2771344
O       0.54880875      -3.8968823      -3.7886722
H       1.44788933      -4.1164479      -3.5149300
H       0.49282500      -3.9445695      -4.7555031
O       -4.3543191      -8.1100711      -3.0839543
H       -3.9991028      -8.9143085      -2.6872296
H       -4.2352919      -8.2155923      -4.0410995
O       1.18719280      -8.5288715      -2.7765920
H       1.29682648      -8.5994195      -1.8213211
H       0.60073715      -7.7678217      -2.9163718
O       0.14655496      -4.2511434      -6.4536252
H       -0.8102428      -4.3857541      -6.4715786
H       0.54454148      -5.0881328      -6.7240037
O       -5.6675553      -5.6856408      -3.9995079
H       -5.4177146      -6.5130343      -3.5698804
H       -5.0127830      -5.0307827      -3.7231254
O       2.97248507      -4.8543267      -2.8131549
H       3.78540492      -4.4413142      -2.5357217
H       2.51429796      -5.1482920      -2.0030171
O       -2.8173804      -10.273933      -2.1064119
H       -3.0422589      -11.196443      -2.0198283
H       -2.1436910      -10.213186      -2.8073673
O       -1.6519440      -8.3967371      -0.3279536
H       -2.0984108      -7.5948624      -0.6199358
H       -2.0425384      -9.1141433      -0.8438828
O       2.66929984      -7.0430541      -4.6246767
H       2.30506945      -7.7029886      -4.0190920
H       2.87759519      -6.2797532      -4.0729117
O       -5.1603355      -5.8753147      -6.6661181
H       -5.9106283      -5.6734972      -7.2179088
H       -5.4563379      -5.7877516      -5.7418570
O       1.57175779      -5.6109924      -0.6509154
H       0.71830076      -5.1750292      -0.5160102
H       1.46141064      -6.5203352      -0.3523827
O       -2.5399053      -5.0790085      -6.0543804
H       -3.4241516      -5.2422337      -6.4082489
H       -2.1215689      -5.9456648      -5.9727835
O       -1.3259271      -2.4570965      -2.4702310
H       -0.6078159      -2.9021651      -2.9556312
H       -1.1271060      -1.5246647      -2.4708564
O       -0.9637047      -4.4529156      -0.4361503
H       -1.1044576      -3.6758747      -0.9910410
H       -1.6893950      -5.0503144      -0.6445219
O       -3.9297723      -8.3194961      -5.7945942
H       -4.3787264      -7.5929827      -6.2437238
H       -2.9833505      -8.1678171      -5.9133267
O       1.04076719      -8.3414917      0.02469700
H       1.27836156      -8.7937164      0.82941473
H       0.06901271      -8.3700590      -0.0372162
O       -0.5792790      -6.4604520      -3.3563721
H       -0.1967337      -5.5789508      -3.4459147
H       -1.3267203      -6.4004893      -2.7504143
O       -0.8841872      -9.9580526      -3.9912700
H       -0.0840931      -9.6201429      -3.5634822
H       -1.0320111      -9.3830833      -4.7477736