78
 Ord_Energy   -288.8792782
O       2.51780908      -1.8248494      3.16722350
H       2.82358726      -2.0657704      4.03782572
H       1.78796273      -1.1923117      3.29427194
O       2.21057690      0.17766848      -2.7160537
H       3.16044759      0.04689575      -2.8361499
H       2.03723017      1.12584618      -2.6864104
O       -2.2642660      2.06404365      0.18784248
H       -1.3981048      1.95041692      0.61807700
H       -2.7079931      2.77809762      0.63712174
O       -1.7451687      -1.9135900      2.53884800
H       -2.0952494      -1.5234597      1.71865689
H       -2.4943663      -2.2644882      3.01320965
O       0.22605157      1.60251339      1.19569474
H       0.88780111      2.29048067      1.05344915
H       0.50728687      0.83499837      0.67049360
O       -2.6885767      -0.7592187      0.27128421
H       -2.4108292      -1.0283441      -0.6136501
H       -2.6866149      0.20515148      0.26669741
O       -1.5037271      -1.3483263      -2.2284102
H       -1.5059288      -1.5253509      -3.1758415
H       -0.9074832      -1.9961270      -1.8232406
O       2.07953603      1.73396270      -6.1081133
H       1.90985409      2.12462973      -6.9619886
H       1.20986592      1.52630571      -5.7242893
O       0.35049770      -0.1871767      3.37880256
H       0.31634841      0.53734115      2.74148391
H       -0.4187595      -0.7391184      3.18609108
O       2.18386438      3.42335794      0.41650348
H       2.98303840      2.87278949      0.31564348
H       2.47137628      4.26917981      0.74833445
O       3.69392199      -0.7771825      0.82265389
H       2.82099357      -0.6518256      0.41991760
H       3.50691229      -1.1492579      1.69238282
O       1.33467080      2.81705657      -2.2189402
H       1.55652711      3.06792759      -1.3141266
H       0.45591700      2.41368708      -2.2090443
O       4.40797302      -2.3914677      -1.3870047
H       4.26870797      -1.9054320      -0.5649394
H       4.71328595      -1.7450320      -2.0391204
O       4.31925141      1.86129721      0.01761366
H       4.26697152      0.93790769      0.29672488
H       4.79052235      1.89780922      -0.8221254
O       5.51635462      2.24243828      -2.5824032
H       4.79317332      2.61257514      -3.1207096
H       6.27799565      2.79833374      -2.7234574
O       4.90472730      -0.3926038      -3.2523570
H       4.63390405      -0.4574028      -4.1810372
H       5.27607653      0.48473245      -3.0989678
O       2.48000720      -3.9201938      -2.4471494
H       3.19957755      -3.4025615      -2.0398894
H       2.80151136      -4.8126258      -2.5395360
O       1.18448773      -0.4731563      -0.2914610
H       1.52117220      -0.2154353      -1.1625068
H       0.82789038      -1.3635058      -0.3911926
O       0.27253023      -3.0320262      -0.9407513
H       1.00920423      -3.4161995      -1.4311654
H       0.35201074      -3.3120975      -0.0155447
O       -1.0258798      -1.6793175      -5.0068279
H       -1.3090716      -2.2885146      -5.6832331
H       -0.0899829      -1.8752917      -4.8208341
O       3.40172675      3.13265804      -4.0152015
H       3.04326193      2.69197031      -4.7951272
H       2.65296050      3.22670857      -3.4092998
O       -0.3653327      1.10320628      -5.0549200
H       -0.6732314      0.19517102      -5.1623921
H       -0.6783195      1.37895282      -4.1850961
O       1.57215992      -2.0047034      -4.2917115
H       1.70028036      -1.1983352      -3.7671746
H       1.88917817      -2.7383242      -3.7503263
O       -1.0916331      1.44803142      -2.3052823
H       -1.6098578      1.77911107      -1.5622688
H       -1.1382457      0.48291737      -2.2482797
O       3.65436062      -0.6184377      -5.6977643
H       3.17400512      0.19343298      -5.9056685
H       2.97847346      -1.2437753      -5.4073905
O       0.53723717      -3.4082568      1.73412842
H       1.27580689      -2.9851677      2.18653361
H       -0.2612720      -2.9728494      2.06170069