78
 Ord_Energy   -288.4117916
O       -1.5338355      4.62315965      -2.2690232
H       -0.8924277      4.27837477      -2.9066901
H       -1.3656857      5.55726248      -2.0938047
O       -4.6839316      4.10563229      0.60960841
H       -4.9419180      4.24711020      1.51624222
H       -4.4655435      4.97982758      0.23822895
O       -2.4794302      -1.1063250      -2.4371142
H       -2.5989040      -2.0518935      -2.4416383
H       -1.8645530      -0.8971617      -3.1636259
O       -4.1023698      6.46599771      -0.5544270
H       -4.7016484      6.53382042      -1.3118859
H       -3.2502566      6.79973270      -0.8537309
O       -6.2048736      2.88542012      -1.4892420
H       -5.7627233      3.29552898      -0.7360484
H       -5.6170073      2.18347650      -1.7959235
O       -0.1293983      5.07904349      -6.3578585
H       -0.3073649      4.42913738      -7.0487303
H       0.09098986      4.56659119      -5.5690608
O       -6.1063963      5.12604617      -7.8643611
H       -6.3161744      4.55411938      -7.1041407
H       -6.7940818      4.98808582      -8.5098478
O       -5.5497528      8.73088660      -4.4433241
H       -5.4388211      8.32941990      -5.3250637
H       -5.9947439      9.56380151      -4.5712931
O       -2.5723784      2.71740882      -0.6066048
H       -2.1722952      3.41209734      -1.1512864
H       -3.2470649      3.14088927      -0.0629468
O       -2.4907664      6.42093573      -6.0490511
H       -1.5920679      6.07749884      -6.1654078
H       -2.9189440      5.88263305      -5.3634509
O       -5.6773068      6.45664415      -2.8435244
H       -6.4336246      5.87700279      -3.0006696
H       -5.7711513      7.25499499      -3.3791364
O       -0.7711184      0.59936218      -0.8558238
H       -1.3496294      1.33919649      -0.6242728
H       -1.3450073      -0.0696959      -1.2480219
O       -5.0196401      7.50382646      -6.7686975
H       -4.0961947      7.24241034      -6.6617299
H       -5.4660771      6.74837985      -7.1710448
O       -4.1236040      1.17124063      -2.3364563
H       -3.5663501      1.71580833      -1.7610474
H       -3.6924967      0.30962596      -2.3862469
O       -3.6397596      4.96912576      -4.0231282
H       -2.9514962      4.83260100      -3.3576850
H       -4.3515021      5.47691242      -3.6132884
O       0.01151787      3.32276790      -4.1358432
H       0.52481565      2.66901895      -3.6446269
H       -0.6125137      2.81907455      -4.6804122
O       1.13601902      1.19225985      -2.6941350
H       0.50002324      1.00785328      -1.9793693
H       1.99726185      0.95192550      -2.3637067
O       -1.1538047      3.08510721      -8.1982536
H       -1.9745312      3.60444447      -8.2829201
H       -0.8881197      2.84071042      -9.0801813
O       -0.6877131      -0.3489589      -4.3231733
H       0.04453626      0.07882008      -3.8639954
H       -1.0461324      0.31914514      -4.9247073
O       -2.7057095      8.39044731      -3.9888782
H       -3.6381931      8.62148770      -4.0680025
H       -2.5039579      7.83715725      -4.7539657
O       -3.3203436      4.67424235      -8.1678703
H       -3.0266362      5.31311430      -7.5067672
H       -4.2823770      4.73047372      -8.1718217
O       -6.6013210      3.54703653      -5.7402758
H       -6.9855735      3.84983068      -4.9097815
H       -5.8332746      3.01035201      -5.5014612
O       -1.6074072      7.36128099      -1.7332456
H       -1.9865534      7.76929673      -2.5318528
H       -1.0022099      7.99780420      -1.3621988
O       -4.2156602      2.40882658      -4.8238969
H       -4.0393767      3.33260527      -4.5855521
H       -4.2315341      1.91004103      -3.9954376
O       -1.6821899      1.81478333      -5.7636207
H       -1.5182494      2.15351031      -6.6521950
H       -2.6081843      1.98621742      -5.5420991
O       -7.5818591      4.44221981      -3.2012826
H       -8.5096416      4.37237182      -2.9926624
H       -7.1118332      3.85007992      -2.5848712