36
 Ord_Energy   -117.5330660
O       6.15056086      -4.9253635      -23.881050
H       5.64743900      -5.2226252      -23.108923
H       6.26254749      -5.7069025      -24.434972
O       2.80954385      -2.4670019      -21.539588
H       3.49425316      -2.7922668      -20.943262
H       2.42946148      -3.2504696      -21.961753
O       4.54024363      -8.2578401      -22.936594
H       4.53832865      -8.9825563      -22.316104
H       4.54724264      -7.4402794      -22.410005
O       6.38427448      -2.5004696      -22.431728
H       6.52706623      -3.2589595      -23.012956
H       5.72835636      -1.9460902      -22.873828
O       2.02704883      -7.2661881      -24.181911
H       2.72882795      -7.7865438      -23.779872
H       2.39711094      -6.9425201      -25.018220
O       3.46247792      -6.1546931      -26.310472
H       4.31713009      -6.5548787      -26.112379
H       3.55150771      -5.2205567      -26.082271
O       4.50245142      -5.7799372      -21.748895
H       3.68538427      -5.4493684      -22.154249
H       4.75744820      -5.1353197      -21.077741
O       2.28756881      -4.7690978      -23.061830
H       2.75398040      -4.3466277      -23.797288
H       1.98881507      -5.6291074      -23.391096
O       5.87903547      -7.3911571      -25.234655
H       5.43496847      -7.7987213      -24.473606
H       6.39008713      -8.0777702      -25.656406
O       5.16592360      -3.5286917      -20.222351
H       5.67478228      -3.1160788      -20.943576
H       5.58321762      -3.2692935      -19.405586
O       3.93869495      -3.6240379      -25.039651
H       4.75673819      -4.0295033      -24.717603
H       3.95682073      -2.7109582      -24.728302
O       4.10213900      -1.2007648      -23.580604
H       3.58006716      -1.5593857      -22.840448
H       3.82631135      -0.2962680      -23.700820