81
 Ord_Energy   -300.2116959
O       2.23077575      5.72304740      4.75233279
H       2.72615792      6.50902382      4.96461583
H       2.81715198      4.96432583      4.92898652
O       -2.4202321      4.28536687      3.81764481
H       -1.9392460      4.05324094      3.01168122
H       -1.7472780      4.52006528      4.46984884
O       1.31514231      0.85336563      2.36338115
H       0.98134450      0.93466101      1.46033855
H       1.70839026      -0.0273523      2.41948728
O       1.91377204      -1.2459359      5.07027202
H       1.01789423      -1.1114759      4.72964603
H       2.23131232      -0.3926366      5.39948168
O       -2.0302369      0.83092224      2.58649156
H       -1.5541706      1.61632142      2.28169340
H       -2.8018638      1.15702137      3.06447168
O       3.76911861      3.50956316      5.05790177
H       3.87720298      3.16016556      4.16234048
H       3.46542133      2.75962659      5.58449068
O       -3.9523655      2.11935927      4.22390312
H       -4.8824247      2.32065616      4.18122720
H       -3.4729713      2.96130638      4.10304079
O       -2.0211608      -1.5571578      6.53140037
H       -1.1561439      -1.5447886      6.98289454
H       -2.5651781      -2.1934187      6.98595207
O       0.53913076      0.65468575      -0.3212281
H       0.19985264      1.47229949      -0.7017324
H       -0.2100910      0.05475693      -0.1893817
O       3.54867571      2.50028769      2.46187873
H       2.82880477      1.85283538      2.46934963
H       3.96182491      2.43758854      1.59238108
O       -0.3526876      3.20891092      -1.0955390
H       0.54132929      3.57964436      -0.9759675
H       -0.7099804      3.59215262      -1.8913464
O       0.45283429      -1.3859557      7.56140172
H       0.69690747      -0.5718608      8.02027378
H       1.08178637      -1.4912938      6.83745911
O       4.27356964      2.20539619      -0.2263535
H       5.09329921      2.19601166      -0.7130420
H       3.93264215      1.29279538      -0.2337300
O       -0.8642690      3.26739975      1.69221115
H       -0.0242439      3.66151177      1.96823888
H       -0.8638977      3.28683158      0.72787515
O       2.48801104      1.27146735      6.20389381
H       2.20142111      1.24006072      7.12451325
H       1.71940233      1.57830892      5.69558842
O       2.11704056      4.10811021      -0.4923167
H       1.99422424      4.41902378      0.41469494
H       2.86197240      3.49504040      -0.4746907
O       1.60594878      4.48126757      2.27078384
H       2.29332258      3.80438571      2.35750856
H       1.71780750      5.06245027      3.03098954
O       -2.0706960      1.20492131      6.06852521
H       -2.1836934      0.27155110      6.28359009
H       -2.8191201      1.48139017      5.52447992
O       -0.1917548      4.53327190      5.54393486
H       0.02437432      3.65470477      5.19198340
H       0.58112891      5.08203081      5.36780306
O       -0.0680918      -2.9310325      2.00714616
H       -0.3546050      -2.4180450      2.78293347
H       -0.3270179      -3.8364541      2.16088613
O       -0.7799426      -1.2405672      4.03351875
H       -1.2978067      -1.4124388      4.82928233
H       -1.1804271      -0.4913288      3.57034290
O       -0.6752092      2.88777130      7.81675288
H       -0.4860828      3.62106420      7.21837712
H       -1.2730260      2.31129915      7.32004578
O       3.16529829      -0.2677498      -0.1258602
H       3.12532574      -0.8341182      0.65246542
H       2.24790485      -0.0258733      -0.3242791
O       1.18333570      1.12361404      8.69991849
H       1.44787005      1.32927372      9.59239068
H       0.52188552      1.79060974      8.44163272
O       2.46499299      -1.6922269      2.33816285
H       2.51949799      -1.6925649      3.30386628
H       1.69482453      -2.2301946      2.10964367
O       -1.5182490      -0.9766932      0.44224613
H       -1.8409834      -0.4056269      1.15263168
H       -1.0809293      -1.7231169      0.86928567
O       0.30671048      1.95240814      4.69939574
H       0.52137262      1.56086192      3.84227922
H       -0.5130794      1.56981247      5.03773626