30
 Ord_Energy   -93.3300476
O       4.25249386      8.50073910      3.94534612
H       4.76435375      7.94381857      4.54763365
H       3.51402640      8.84222317      4.46635389
O       8.14962959      8.14228916      4.81996822
H       8.83626270      8.67878532      5.20581007
H       7.68436575      8.70203590      4.17118454
O       5.79774380      6.84994602      5.68289423
H       5.78566074      6.04369879      5.15012407
H       6.64720583      7.28119993      5.51997948
O       2.33260274      9.17334843      5.82287312
H       1.40148509      9.03603268      5.97854853
H       2.79536557      8.65783119      6.50378275
O       3.86678815      7.61254072      7.54116488
H       4.57858324      7.28639698      6.96823978
H       4.21495008      7.59256029      8.42913437
O       5.93312597      4.74289322      3.82518721
H       6.76476479      5.10212803      3.46597314
H       6.02519083      3.79430199      3.84205341
O       6.80674791      7.52741861      0.83931482
H       5.96108675      7.15602303      1.14994049
H       6.76183558      7.55734539      -0.1121773
O       6.69952536      9.45554638      2.95030069
H       5.78812599      9.31986427      3.24650168
H       6.78853846      8.94531918      2.13551188
O       8.12862015      6.03522635      2.87399960
H       8.31043530      6.70704174      3.54321885
H       7.82002640      6.51697445      2.09482837
O       4.56112146      6.51181793      1.99423599
H       4.86756754      5.79962635      2.56816101
H       4.28069496      7.22336960      2.58777404