81
 Ord_Energy   -300.6489463
O       -1.6695015      1.63692860      -2.1372792
H       -1.2845101      0.92202142      -1.6183448
H       -2.4161779      1.29099259      -2.6461525
O       4.25145132      4.06593150      -0.8486902
H       3.89085771      4.79343076      -0.3262010
H       4.20520912      3.27767062      -0.2950556
O       -2.9186016      3.80450133      -0.9938991
H       -2.4126338      3.04339659      -1.3206077
H       -3.6965076      3.85068260      -1.5615043
O       0.93796458      3.67532274      -1.3678594
H       0.22594647      4.30819996      -1.5268394
H       1.64431948      3.89482729      -1.9889925
O       -3.2537520      4.44094678      -5.1361276
H       -3.0064768      3.64482267      -5.6245293
H       -2.4330792      4.93126066      -5.0001690
O       1.01809056      4.38108875      1.29649179
H       1.00514397      4.06664017      0.37909744
H       1.65529386      5.10362280      1.29038612
O       1.40634522      7.08293488      -1.5137876
H       1.66656782      6.98955442      -2.4373326
H       0.51067141      6.72205217      -1.4621944
O       -0.9943097      5.64179726      -1.7650466
H       -1.7582412      5.13852048      -1.4556281
H       -1.0071809      5.62522202      -2.7329747
O       3.92355052      1.62565450      0.64788065
H       4.63140009      1.13477109      1.05614570
H       3.20847452      1.69368682      1.30669346
O       -1.5930792      3.24038311      1.46043213
H       -2.1399351      3.53351881      0.72160492
H       -0.8104285      3.80571854      1.48056895
O       0.76874691      -0.7020318      -4.9470930
H       0.10168533      -0.6656001      -5.6420760
H       0.35266403      -1.1724308      -4.2151191
O       2.27281052      1.39163213      -3.9881621
H       2.24512530      1.18647671      -3.0423629
H       1.87349250      0.62961356      -4.4350485
O       -0.6453173      -2.0386375      -2.7825196
H       -0.3978327      -2.9270376      -2.5353639
H       -0.5520356      -1.4947809      -1.9838721
O       -3.8161807      1.07828007      -3.7956290
H       -4.3344033      1.83851021      -3.5062383
H       -3.3536531      1.35675655      -4.6016743
O       -0.6459804      5.36417367      -4.5023326
H       0.20416840      5.81657654      -4.5531897
H       -0.4461349      4.41492635      -4.4614744
O       2.98926827      6.25890096      0.53357769
H       2.43980214      6.59865194      -0.1960140
H       3.41800341      7.01465445      0.92603723
O       3.01898776      4.02591462      -3.2761471
H       3.59481486      4.00684574      -2.4944762
H       2.93616443      3.13188006      -3.6308293
O       1.79046135      1.88840058      2.27624334
H       0.98027807      1.37217306      2.20921584
H       1.53661172      2.80207335      2.07937309
O       1.92638377      1.11686022      -1.2396744
H       2.68154245      1.18221914      -0.6425658
H       1.49087024      1.98421990      -1.2351801
O       -4.8466088      3.65356925      -3.0808302
H       -5.7208192      4.01916096      -3.1880942
H       -4.3051946      4.00678592      -3.8104030
O       -2.2616117      1.90876346      -5.9681625
H       -2.0364779      1.07866199      -6.4048230
H       -1.4784121      2.16083721      -5.4544796
O       -0.2152169      2.65711110      -4.2732492
H       0.66094105      2.25498969      -4.2708230
H       -0.6599720      2.35620809      -3.4676544
O       -0.3161093      -0.3263876      -0.6655841
H       -0.5416809      -0.0899186      0.24302747
H       0.53842055      0.09097386      -0.8580587
O       -1.5233167      -0.7012967      -6.7189755
H       -2.0456693      -1.0616160      -5.9794757
H       -1.6726831      -1.2733099      -7.4669573
O       2.00294211      6.36244018      -4.2390314
H       2.42051125      5.52926058      -3.9575394
H       2.60229887      6.77470508      -4.8559548
O       -0.8259504      0.68313341      1.88562662
H       -1.2981567      0.34047474      2.64015842
H       -1.1581096      1.58767706      1.73821130
O       -2.8631480      -1.4983902      -4.4895906
H       -2.1869207      -1.7136615      -3.8344465
H       -3.3435499      -0.7309200      -4.1529901