51
 Ord_Energy   -177.9672700
O       3.97635603      -12.969482      19.1364040
H       3.24301648      -13.457938      19.5282116
H       3.74828863      -12.033872      19.2095509
O       2.67088985      -15.365107      16.6890450
H       2.11210966      -14.579712      16.8190060
H       3.57284069      -15.030820      16.6590443
O       -1.3935937      -13.319962      16.2129574
H       -1.5531988      -14.269316      16.2343826
H       -0.4524716      -13.218926      16.4325886
O       2.51317024      -9.7711639      16.6298943
H       2.88243032      -10.434616      16.0311394
H       1.60837162      -9.6087513      16.3346024
O       -1.4572336      -10.941311      17.7282352
H       -0.8373302      -11.167629      18.4347324
H       -1.6616069      -11.771764      17.2769432
O       0.69575155      -16.071548      18.4956627
H       -0.0485296      -16.107872      17.8846226
H       1.48209071      -16.059413      17.9306240
O       -0.4490247      -11.753220      14.0910616
H       -0.3272311      -10.918679      14.5587778
H       -0.9428687      -12.321312      14.6988220
O       -0.1881047      -9.4768066      15.8235598
H       -0.6726957      -9.9434976      16.5280056
H       -0.6554774      -8.6603679      15.6661310
O       0.66660047      -11.735425      19.4035645
H       0.89495176      -12.567577      19.8395004
H       1.43463278      -11.153110      19.4746971
O       4.97404909      -13.729004      16.7301884
H       4.66838074      -13.454587      17.6145535
H       5.91717386      -13.852327      16.7907410
O       3.27124405      -12.033987      15.2122364
H       3.92741132      -12.627951      15.5992365
H       2.84936118      -12.484952      14.4689970
O       3.05321050      -10.275603      19.2168579
H       3.41642094      -9.5025072      19.6394043
H       2.89225459      -10.039156      18.2846165
O       1.24783850      -12.993148      16.9344273
H       1.86666977      -12.495625      16.3863888
H       1.11293924      -12.502208      17.7537842
O       1.64718390      -13.223037      13.2321415
H       0.88144869      -12.674275      13.4832954
H       1.71641147      -13.176878      12.2819891
O       1.60470176      -14.223771      20.2855816
H       1.62314093      -14.632189      21.1473999
H       1.22401524      -14.881737      19.6780872
O       0.93741399      -15.709410      14.5364389
H       1.11704719      -14.914283      14.0222883
H       1.64711487      -15.750111      15.1931429
O       -1.1575565      -16.128973      16.2451000
H       -0.4591578      -16.018083      15.5748386
H       -1.6778914      -16.880167      15.9727440