90
 Ord_Energy   -338.2697311
O       -3.2945614      1.47456070      0.16250976
H       -3.2538706      0.51067996      0.05879065
H       -3.1257450      1.65156368      1.09610061
O       -0.5861441      1.78610298      -0.4083223
H       -0.3596526      1.01445540      0.12948482
H       -1.5469965      1.85654126      -0.3489838
O       -2.9985766      -1.2281830      -0.4279152
H       -2.1176829      -1.1678849      -0.8321690
H       -3.6175337      -1.4193695      -1.1423200
O       -3.6873422      1.26472189      -2.6902370
H       -3.6891103      1.47915210      -1.7501076
H       -4.0080044      0.35704533      -2.7646370
O       -0.4849532      -1.3051272      -1.5359412
H       -0.4446178      -2.2669856      -1.6327842
H       0.37599044      -1.0125969      -1.2094858
O       -0.4119574      -0.0851459      1.62842032
H       -1.0209851      0.53775790      2.04740876
H       -0.8480837      -0.9461569      1.61529417
O       -4.4747286      -1.5142547      -2.7739582
H       -3.7903867      -2.0966764      -3.1499519
H       -5.3176475      -1.8836768      -3.0225157
O       -2.2059714      1.73195933      2.81318127
H       -1.6189015      2.48060320      2.98214135
H       -2.2260202      1.21297188      3.62938185
O       -1.7723570      -2.5529273      1.63860076
H       -1.0638118      -3.0865927      1.25127892
H       -2.3450809      -2.2346817      0.92822600
O       0.54205019      2.34712900      -2.8668272
H       0.15944053      2.09681863      -2.0122829
H       -0.1759624      2.28346066      -3.5068290
O       -1.7255435      1.84334168      -4.4652593
H       -2.4476262      1.69088510      -3.8292315
H       -2.1049676      2.30940489      -5.2054545
O       1.16750810      3.39173568      0.99087077
H       0.49791929      2.90448367      0.48739788
H       0.77155306      3.58514899      1.84819094
O       -0.7718578      -0.8203002      -4.2510036
H       -1.0960834      0.06496406      -4.4494002
H       -0.6788543      -0.8719329      -3.2864889
O       2.05494382      -0.5017010      -0.8181830
H       2.34283381      -0.1331644      -1.6645549
H       2.38002954      0.09553586      -0.1350820
O       -0.1521706      3.60473433      3.46703028
H       0.24921832      2.86914851      3.96518259
H       -0.1847924      4.35381344      4.05626888
O       -2.4244355      -3.0290126      -3.6979411
H       -1.8550970      -2.3445952      -4.0778301
H       -1.8660157      -3.5432995      -3.1031327
O       2.32410968      4.09410867      -1.4963992
H       1.68033039      3.66605841      -2.0765220
H       1.94206670      4.06732026      -0.6090085
O       -0.4398001      -4.0741746      -1.8522485
H       -0.2117446      -4.2670768      -0.9349269
H       0.37492462      -4.1610800      -2.3692403
O       -1.7853131      0.16153304      5.12088718
H       -1.5517031      -0.7456862      4.85283240
H       -2.2669370      0.08708168      5.94042481
O       3.15187040      1.41172799      0.92612359
H       2.50457567      2.12518291      1.02546271
H       3.75408239      1.69024141      0.22562870
O       0.53207113      -3.9119503      0.87702263
H       1.31251142      -3.7017502      0.33876271
H       0.81901872      -3.7548868      1.78422616
O       -1.0877552      -2.3037886      4.29673476
H       -0.1724182      -2.5858506      4.18787358
H       -1.5010257      -2.4637324      3.43548854
O       2.02065584      -0.3057769      2.84005428
H       1.15702030      -0.2383870      2.39884468
H       2.62665779      0.22661234      2.31105320
O       2.83502170      0.80144690      -3.1437336
H       2.04025904      1.35729183      -3.1522595
H       3.52172129      1.30461275      -2.6899728
O       0.76387838      1.40736375      4.74359803
H       -0.0436027      0.93255294      4.97857352
H       1.29621828      0.80059358      4.21413461
O       2.68866503      -3.2190805      -0.6386198
H       2.60752173      -3.5306727      -1.5480656
H       2.58198504      -2.2584736      -0.6755606
O       1.92459557      -1.5602744      -4.4118166
H       2.37985838      -0.7720920      -4.0916791
H       0.99780343      -1.3049902      -4.5175516
O       1.98013890      -4.0097888      -3.2832097
H       1.99797307      -3.1390076      -3.7199093
H       2.39224135      -4.6258459      -3.8826149
O       4.45026969      2.41216710      -1.4227029
H       5.28316530      2.85407487      -1.5647288
H       3.75601402      3.09491488      -1.4722758
O       1.55921314      -2.9746636      3.42263645
H       1.83181154      -2.0637310      3.22330517
H       2.31138771      -3.3989051      3.82914457