42
 Ord_Energy   -142.2097470
O       0.79360318      -0.4686504      -3.9378411
H       1.27064669      0.14086084      -4.5207166
H       -0.1395206      -0.2694296      -4.0678768
O       1.26808310      -0.1836538      -1.2951000
H       1.16943502      -0.3412469      -2.2520601
H       1.51553202      -1.0158876      -0.9022197
O       3.25205278      4.90181255      -0.2679375
H       3.04395771      3.97586751      -0.4536575
H       3.64297175      5.25219393      -1.0781838
O       -0.2845995      3.81110740      -1.2685152
H       -0.0671419      4.59750557      -0.7535550
H       -0.2098670      4.06123924      -2.2015321
O       -1.2543977      1.19491458      -1.4993579
H       -0.4596849      0.69156581      -1.2835717
H       -1.0456297      2.12122107      -1.3168925
O       2.84304953      3.44580936      -3.6982841
H       2.70792532      3.01272821      -2.8426001
H       3.35256195      4.24662256      -3.5252389
O       3.91013217      5.92701149      -2.8696568
H       4.52864027      6.57133389      -3.2025733
H       3.03047919      6.34532022      -2.8836219
O       0.81652165      6.10213709      -0.0484036
H       1.70933104      5.71254921      -0.0262932
H       0.71027112      6.59653139      0.75952434
O       -1.9084242      0.62573922      -4.0583787
H       -1.7334164      0.85397047      -3.1271376
H       -2.6961202      0.08848816      -4.0635938
O       1.82142556      1.55138743      -5.5313944
H       2.30886173      2.19051862      -4.9943928
H       0.97306752      1.96474183      -5.7280807
O       1.33672702      6.82940722      -2.7821652
H       0.83621418      6.16517448      -3.2752137
H       1.06465435      6.73503828      -1.8606725
O       -0.8972309      2.62985969      -5.6907963
H       -1.2957922      1.93127656      -5.1469430
H       -1.4102422      2.68077779      -6.4937100
O       2.18212771      2.45604491      -1.1788537
H       2.00259137      1.50843942      -1.1507693
H       1.31959891      2.89557505      -1.1559271
O       0.25217485      4.47714472      -3.9131734
H       1.15534651      4.12566614      -3.9022107
H       -0.2326256      3.95740557      -4.5645217