48
 Ord_Energy   -165.4616550
O       5.29122400      15.6157293      1.02816284
H       6.20942497      15.9100504      0.98462391
H       5.14223051      15.3003397      1.93132150
O       2.43663740      13.9079971      -1.4653079
H       2.54853821      14.7937832      -1.0706983
H       2.13109064      14.0396852      -2.3584137
O       2.81312871      16.2254791      -0.1379744
H       3.69270444      16.1717663      0.26073673
H       2.18375492      16.2441616      0.59478170
O       8.03346348      16.1599903      1.11226749
H       8.42677689      15.3230896      0.80597436
H       8.62809849      16.8573246      0.85010612
O       5.05762720      14.4396782      3.54088283
H       5.98890972      14.5979166      3.75325036
H       4.98288774      13.5333996      3.21149182
O       7.17380333      10.9474726      2.01939225
H       7.24099541      11.0938511      1.06778753
H       6.26348209      11.1772833      2.25054073
O       0.97128975      15.9036694      1.98962200
H       0.32151946      16.4875889      2.37086582
H       1.45760107      15.5021753      2.73238611
O       4.58041811      11.9653540      2.29055142
H       4.58595037      12.3214617      1.39115238
H       3.65646887      11.8241758      2.53287458
O       7.75589657      14.9026651      3.71992350
H       7.91373205      15.4433765      2.93696713
H       8.26688385      14.0939283      3.58687663
O       9.03759670      13.7309551      0.45964047
H       9.21461582      13.3125725      1.31267738
H       8.48276997      13.1104851      -0.0281876
O       7.20902586      11.8658342      -0.7033216
H       6.35617876      12.3249903      -0.6211151
H       7.19860172      11.4122438      -1.5422445
O       2.30776119      14.5704308      3.92463017
H       3.27246046      14.6465673      3.92256427
H       2.11974812      13.6384659      3.76262832
O       0.84051323      13.2959547      0.83115554
H       0.75161350      14.1945267      1.17563403
H       1.31732309      13.3819532      -0.0025786
O       9.14464760      12.5100985      3.02777338
H       9.78193760      11.9932117      3.51280665
H       8.43952560      11.8983974      2.74968815
O       4.84982824      13.1906099      -0.2406209
H       4.03286362      13.3083496      -0.7401177
H       5.06229591      14.0504904      0.15292118
O       1.85271382      11.8934116      2.91951036
H       1.45306337      12.3242540      2.14251256
H       1.23372185      11.2328959      3.21838903