78
 Ord_Energy   -288.4321298
O       3.43338197      -2.5399255      2.25216787
H       3.89850187      -2.9377486      2.98322730
H       2.85122637      -1.8559667      2.63032645
O       2.28370373      0.68219138      -3.1155412
H       3.24676689      0.74413354      -3.1459095
H       1.94572203      1.52954111      -3.4308325
O       -1.2688882      2.23192221      1.29057690
H       -0.3303300      2.00644843      1.41788417
H       -1.4764097      2.92510205      1.91100686
O       -0.8069302      -2.0672043      2.65300977
H       -1.4637915      -2.4039808      3.25668264
H       -1.2824190      -1.5182409      2.00470893
O       1.34927633      1.47194437      1.41962043
H       2.04792906      2.11176099      1.23488501
H       1.38290075      0.82177303      0.69875159
O       -2.0773139      -0.4635683      0.87846428
H       -2.0400941      -0.5593439      -0.0812386
H       -1.9265107      0.47172084      1.06293069
O       -1.5192883      -0.6512250      -1.9037644
H       -1.6400422      -0.6185169      -2.8595454
H       -0.9347385      -1.4044734      -1.7294631
O       1.88136047      -3.6203514      -3.4565732
H       1.97141358      -4.5367301      -3.7022931
H       2.75089315      -3.3282287      -3.1236912
O       1.64384851      -0.7192825      3.17467073
H       0.77690924      -1.1376448      3.09273619
H       1.58604630      0.11017097      2.68354456
O       3.35772084      3.15758548      0.47723656
H       3.88586546      3.85833190      0.84988369
H       3.97947898      2.52038448      0.08115184
O       4.17461791      -1.2869568      -0.1498980
H       3.29319483      -0.9198970      -0.3186768
H       4.09477412      -1.7677809      0.68267117
O       1.52935093      3.68865298      -1.6806009
H       2.14333434      3.52837191      -0.9561489
H       0.75769408      3.12657478      -1.5269224
O       5.01653828      1.35485510      -0.6502057
H       4.87896893      0.42939571      -0.4095237
H       5.13817475      1.37140566      -1.6080810
O       3.84559875      2.38553854      -5.7209358
H       4.11403253      3.05696520      -6.3424770
H       3.04488766      2.71971861      -5.2785773
O       5.04209953      1.16161537      -3.4560774
H       4.77548073      1.69337703      -4.2173803
H       5.38669135      0.32972837      -3.8075772
O       4.23046134      -2.6916970      -2.5839655
H       4.31938743      -2.2345117      -1.7375234
H       4.78479673      -2.2332967      -3.2258453
O       1.64591709      -0.2875900      -0.6424448
H       1.81323428      0.14078986      -1.4943006
H       1.15992920      -1.1017289      -0.8236425
O       0.31288327      -2.6255247      -1.3447464
H       0.52689463      -3.0817523      -0.5161243
H       0.81203310      -3.0450426      -2.0547872
O       -1.4005881      -0.4725071      -4.7429516
H       -0.4816135      -0.7739666      -4.8391191
H       -1.8956425      -0.8630893      -5.4587107
O       1.65655318      3.15806520      -4.3267761
H       0.72575727      2.94658397      -4.4929686
H       1.70376347      3.53234134      -3.4326411
O       -0.9439340      2.33383557      -4.3046122
H       -1.1725851      1.42979727      -4.5484747
H       -1.0270201      2.37440052      -3.3417350
O       5.61533183      -1.3051494      -4.6494682
H       6.34601030      -1.6396834      -5.1624234
H       4.90723009      -1.0758772      -5.2784410
O       1.24252003      -1.2367434      -4.7892040
H       1.60166462      -0.5836209      -4.1677152
H       1.42906934      -2.1087479      -4.4178991
O       -0.7982661      2.05384531      -1.4848959
H       -1.0923593      2.25449780      -0.5886569
H       -0.9394789      1.10416189      -1.6025925
O       3.58137580      -0.4456161      -6.2304753
H       2.72113857      -0.7376214      -5.9036989
H       3.59036174      0.51766700      -6.1636475
O       0.99883007      -3.6050716      1.09121424
H       0.35708309      -3.1666352      1.66620951
H       1.86795831      -3.3654065      1.43267957