39
 Ord_Energy   -129.7904970
O       0.77463400      10.9113817      -9.5894641
H       0.83998692      10.4700098      -10.432146
H       1.65900457      11.2731905      -9.3951549
O       1.02929187      9.69906044      -7.0205960
H       1.99602497      9.75950813      -6.9858532
H       0.77637112      10.0104742      -7.8963384
O       3.22494578      11.8023272      -8.8621082
H       3.27174807      12.6290951      -8.3653831
H       3.59939432      11.1246195      -8.2838716
O       1.29248381      7.89360905      -4.8570418
H       1.03615582      8.44966698      -4.1103358
H       1.03251314      8.37965488      -5.6511502
O       3.81608891      9.99137783      -6.7777266
H       3.77538872      10.7467213      -6.1715970
H       4.04344749      9.22491169      -6.2380285
O       4.01937151      7.92926168      -4.8669972
H       3.05311632      7.80518913      -4.8573422
H       4.41047573      7.06584692      -4.7670068
O       0.66762877      11.5860147      -4.9788084
H       0.60337269      11.0687027      -4.1670475
H       0.67438358      10.9518681      -5.7106204
O       0.59255189      13.9157610      -6.5805993
H       0.47279519      13.2092752      -5.9332423
H       0.01838177      13.6947021      -7.3271465
O       3.22678661      14.0733509      -7.1259598
H       2.26686215      14.0978584      -6.9533591
H       3.50719333      14.9747581      -7.2561941
O       3.64050770      10.1505327      -3.0744028
H       3.92607927      9.39196777      -3.5989754
H       3.74827290      10.9251242      -3.6424615
O       -0.9037705      13.0007086      -8.7444181
H       -1.8113342      12.8044643      -8.9647398
H       -0.3770750      12.2693110      -9.0992326
O       0.94749236      9.83972836      -2.7763145
H       1.91462302      9.95695496      -2.7718598
H       0.66772473      9.81401253      -1.8654872
O       3.41779184      12.1532536      -5.0664682
H       2.46169901      12.0217562      -4.9776372
H       3.52596402      12.8950281      -5.6740689