54
 Ord_Energy   -190.5717320
O       -4.7271657      -3.7997303      1.33262432
H       -5.0432663      -3.5619075      2.21597981
H       -3.9039371      -3.3135585      1.19644511
O       -5.8175168      -3.0162568      3.82952929
H       -6.5042352      -2.4549372      3.43911147
H       -6.2463355      -3.8412308      4.08719158
O       -6.3404116      0.05350793      -0.5862249
H       -6.7399344      0.47100174      0.18562208
H       -6.5782332      -0.8824582      -0.5364030
O       -8.6665372      -4.8385586      0.17880312
H       -9.4212589      -5.1735553      -0.2973729
H       -8.9880628      -4.5461363      1.05060422
O       -1.2046384      0.04835289      4.19253254
H       -0.6998638      -0.3307919      3.46188974
H       -2.0081312      -0.4849813      4.26212263
O       -0.0817688      -0.8495752      1.70532119
H       -0.3959047      -0.0100840      1.32272446
H       0.80578965      -0.9849442      1.38503122
O       -1.2238417      1.45146680      0.80216634
H       -2.0613596      1.16112280      0.41442075
H       -1.4619842      1.96535861      1.58335638
O       -6.4349074      -6.0383725      1.53450978
H       -5.7162642      -5.4180889      1.35090446
H       -7.1654429      -5.7739892      0.96140444
O       -2.0826845      2.48325849      3.36090922
H       -1.7158309      1.66317225      3.73930550
H       -1.7491437      3.20424032      3.88779712
O       -9.2599687      -3.9446637      2.68718576
H       -8.9095172      -3.0440347      2.70990610
H       -8.7009773      -4.4609823      3.28134799
O       -6.8929100      -2.6528952      -0.0015503
H       -7.5233273      -3.3735902      -0.1220720
H       -6.0794968      -3.0499126      0.34198237
O       -7.7336955      -1.5738794      2.43588686
H       -7.6459465      -0.6148109      2.39336228
H       -7.4770498      -1.9097684      1.56378829
O       -7.1349492      1.14031529      2.02603555
H       -7.5724158      1.97345376      2.18301463
H       -6.2332220      1.22721815      2.37755466
O       -2.6226675      -1.9881604      1.23370552
H       -3.0234329      -1.2273966      0.78587782
H       -1.6880681      -1.7789195      1.34822512
O       -3.6387982      -1.3129704      3.76916885
H       -3.2706008      -1.6050077      2.92249322
H       -4.3585453      -1.9208906      3.98184466
O       -4.5217495      1.16973591      2.89624572
H       -4.2903881      0.31386760      3.28726268
H       -3.7877614      1.76764226      3.08551049
O       -3.7590763      0.35652828      0.28745827
H       -4.0103950      0.68616420      1.16065216
H       -4.5874285      0.25747257      -0.2021464
O       -7.2275748      -5.4397192      4.06973648
H       -7.2451500      -6.1959662      4.64963627
H       -6.9287138      -5.7577061      3.19854069