69
 Ord_Energy   -251.9832464
O       -6.4220717      2.66316945      -0.5392412
H       -5.4981946      2.92571486      -0.6635364
H       -6.6863478      3.03751693      0.31028621
O       -4.3602219      1.12384109      -4.4194923
H       -5.2023840      1.34705418      -3.9834690
H       -4.4349848      1.41132949      -5.3254373
O       -6.7885975      3.58218130      2.10377005
H       -7.4158606      4.19471577      2.47913086
H       -5.9031152      3.90094102      2.35435203
O       -3.1157982      -1.7223975      3.28278440
H       -3.6899808      -1.2133609      3.86520466
H       -3.5370027      -1.6896141      2.41150717
O       -4.1713878      -1.1770894      0.77839441
H       -3.6639379      -1.2685896      -0.0393023
H       -5.0542982      -0.8597395      0.54669858
O       -4.6672586      -1.5043328      -3.2999182
H       -4.5114075      -0.7011998      -3.8123343
H       -3.9186687      -1.5744468      -2.6931993
O       -6.6300285      -0.0537962      0.16384293
H       -6.5356466      0.87383335      -0.0949208
H       -6.9280559      -0.5268931      -0.6229720
O       -2.5615263      -1.1522754      -1.4682472
H       -1.7142851      -1.3408714      -1.0463836
H       -2.5246525      -0.2287787      -1.7574507
O       -2.4571297      1.50465082      -2.3854900
H       -2.8968965      2.15373992      -1.8186951
H       -3.0097447      1.41568066      -3.1721655
O       -0.5934399      -0.7963432      2.68121780
H       -0.4344852      -0.9999840      1.75416036
H       -1.4431425      -1.1974799      2.92094547
O       -0.0762899      -1.2383095      -0.1343880
H       0.05227839      -0.3254350      -0.4491556
H       0.70834791      -1.7251274      -0.3744232
O       -4.8474310      0.04383723      4.76489298
H       -5.5132903      0.28540388      4.09526721
H       -5.3272060      -0.2279351      5.54259771
O       -0.3623835      1.55535349      3.91750000
H       0.31634695      1.50491801      4.58398233
H       -0.4055803      0.67734392      3.49097686
O       -0.7704106      2.67092233      1.36610510
H       -0.4304465      2.43038625      2.23629176
H       -1.5643569      2.12424337      1.25022332
O       -3.7238386      3.20768841      -0.5958115
H       -3.6401158      2.53026630      0.09780692
H       -3.2799075      3.98925650      -0.2497856
O       -7.1837476      -1.1938758      -2.3327804
H       -7.7612621      -1.8751995      -2.6655506
H       -6.2904535      -1.3934722      -2.6667343
O       -3.1412546      2.12058881      4.03051480
H       -3.6568588      1.40527620      4.42677897
H       -2.2025816      1.91720011      4.13044988
O       -6.6039301      0.82481994      2.86012354
H       -6.7089497      1.76698299      2.68086986
H       -6.7093181      0.38389926      2.00801281
O       -3.2085021      1.37456718      1.32449025
H       -3.4879276      0.46065757      1.19727317
H       -3.3104861      1.59032994      2.25996681
O       -2.1872013      5.00755445      0.95636922
H       -1.5867450      4.26025705      1.11791112
H       -1.6399357      5.77848077      0.83122502
O       -6.7084264      1.53155359      -3.1129716
H       -6.7258310      2.02939732      -2.2853695
H       -7.0248656      0.64535885      -2.8975671
O       -4.2961947      4.36204475      2.83304646
H       -3.8847218      3.66621800      3.36527934
H       -3.6106967      4.68776325      2.23989374
O       0.02906422      1.33524324      -1.0057402
H       -0.1066070      1.90185661      -0.2355309
H       -0.7262692      1.47926374      -1.5911092