48
 Ord_Energy   -165.6806950
O       0.70895571      -4.3242273      2.62122107
H       1.57877839      -3.9042394      2.55959606
H       0.43893859      -4.5043349      1.70980430
O       -4.0534730      -6.8632822      4.13798523
H       -4.2932047      -7.2393274      3.28161287
H       -3.1312146      -6.5865869      4.05406475
O       -0.7780965      -1.9737165      2.88885522
H       -1.6248279      -2.2183890      3.28222799
H       -0.2409713      -2.7808857      2.87846613
O       -5.9547476      -5.0189533      1.60451627
H       -5.3436808      -4.3913044      1.19608247
H       -5.9721379      -4.7945570      2.54345107
O       -3.7127859      -3.4590568      0.87465775
H       -3.0806880      -2.8854773      0.42293996
H       -3.5617952      -3.3308203      1.82282627
O       -4.7766976      -7.4687728      1.41869676
H       -5.2857060      -6.6377415      1.43135428
H       -5.3396978      -8.1323328      1.02950370
O       -1.4171663      -2.0729298      0.13502596
H       -0.7193171      -1.5683158      -0.3067320
H       -1.2623628      -1.9607741      1.08343804
O       2.90636444      -2.8172566      1.95508778
H       2.85580659      -3.0192132      1.01187205
H       2.55193567      -1.9246252      2.05084562
O       2.25576854      -3.4635233      -0.7787653
H       1.44282639      -3.9678030      -0.6131423
H       2.72182226      -3.9188559      -1.4759613
O       -2.4926362      -5.9746317      0.71031344
H       -3.1834929      -6.6384458      0.82388872
H       -2.9464819      -5.1182165      0.68477190
O       -5.5170836      -4.5818843      4.41549921
H       -6.0973143      -4.5925936      5.17178583
H       -5.0396909      -5.4315624      4.41299343
O       -3.1245813      -3.3178219      3.62222695
H       -2.5887718      -4.1258955      3.62144971
H       -3.9759271      -3.5635876      4.00385618
O       -1.6139389      -5.6620664      3.36460471
H       -1.8722176      -5.8535809      2.45088673
H       -0.7085211      -5.3288302      3.32262278
O       0.93427658      -0.8970201      -0.6594876
H       1.16843450      -0.5867776      0.22477374
H       1.48345995      -1.6747866      -0.8177815
O       -0.1874273      -4.5752019      -0.0499842
H       -0.6357857      -3.7156786      -0.0680984
H       -0.8808468      -5.2388992      0.05118883
O       1.37271976      -0.3758797      2.14248824
H       0.58183718      -0.8175242      2.49185705
H       1.48748481      0.42201564      2.65318203