15
 Ord_Energy   -31.5610447
O       5.08904409      -9.6483058      -24.819070
H       4.12556648      -9.7065401      -24.749700
H       5.37421560      -10.286229      -25.488565
O       6.29802847      -11.774924      -26.173797
H       6.66116238      -11.827371      -25.274839
H       6.06817961      -12.670065      -26.412401
O       2.34824705      -9.0938119      -24.819603
H       2.76410913      -8.2418680      -25.029350
H       1.61927652      -9.1827220      -25.429306
O       4.18142319      -7.0515003      -25.373123
H       4.60275698      -6.3515296      -24.879486
H       4.72857952      -7.8407688      -25.231884
O       6.89037848      -11.327879      -23.474309
H       7.58076239      -10.886877      -22.984365
H       6.24596119      -10.638431      -23.701602