54
 Ord_Energy   -189.9935000
O       1.49910152      1.33385265      -2.1309769
H       1.32962835      1.99410617      -2.7972528
H       1.24719727      1.72721601      -1.2758067
O       2.96315932      1.91106761      2.09584689
H       2.82690740      0.99367613      1.80730581
H       3.91326904      2.00502276      2.22409010
O       4.54503870      -2.3026580      2.06809497
H       4.93458176      -1.8361777      2.82374907
H       3.81667352      -1.7342190      1.76338100
O       0.84964549      2.31372571      0.29897982
H       0.15922786      1.89072001      0.82223535
H       1.61884737      2.37242436      0.88256031
O       -0.9058481      0.86396062      2.07951522
H       -0.2646758      0.94489539      2.80983686
H       -1.7347792      1.20673645      2.40235090
O       0.35052583      -1.2624620      -1.7629989
H       0.64938974      -0.3703532      -1.9795273
H       1.08336759      -1.8502776      -1.9858628
O       1.02383721      1.13696587      3.94396734
H       1.71876943      1.57074893      3.42953897
H       1.47423184      0.46085993      4.46466494
O       2.45578218      -3.1356771      3.87365985
H       3.25182033      -3.0391819      3.33723974
H       1.78237736      -3.4777867      3.27384210
O       2.58087564      -0.6410263      1.11407447
H       2.90313482      -0.5108025      0.21168943
H       1.66984820      -0.9516543      1.06299472
O       3.69312620      -0.2722569      -1.4353249
H       3.04120374      0.35948154      -1.7667701
H       3.46015811      -1.1376273      -1.7990982
O       5.74601841      1.62178779      2.37045836
H       5.84474516      1.00025678      1.62736499
H       6.53950644      2.14992476      2.39238834
O       5.85238218      -0.2678077      0.39461070
H       5.22696924      -0.1953998      -0.3389341
H       5.62530613      -1.0850616      0.85241163
O       0.71242118      -3.9783444      1.79746878
H       0.34809303      -3.1261739      1.50122356
H       -0.0065298      -4.6048312      1.78720403
O       3.12272191      -3.9700164      0.24723545
H       2.31353140      -4.0812506      0.76218396
H       3.76409221      -3.5597050      0.84062499
O       2.54848385      -0.8198266      5.30325079
H       2.52580714      -1.0249275      6.23497725
H       2.44467092      -1.6652203      4.83228159
O       2.73887324      -2.8032779      -2.1674842
H       2.96935248      -3.4185769      -2.8583118
H       2.88555861      -3.2637734      -1.3218897
O       -0.0839904      -1.5355018      0.91027468
H       -0.4819490      -0.7449514      1.29548442
H       -0.0593820      -1.4357569      -0.0547773
O       5.19369507      -0.6127960      4.11785030
H       4.34397888      -0.5207747      4.56573057
H       5.37090302      0.22564745      3.67452240