39
 Ord_Energy   -129.5882260
O       2.40200663      11.2423058      -5.2671136
H       2.65721583      11.7085972      -6.0784659
H       2.41250491      11.9025583      -4.5645537
O       2.93401456      13.3988304      -3.5188853
H       3.21418715      13.9126215      -4.2983274
H       2.43334007      13.9897537      -2.9633479
O       4.86314678      9.04156208      -9.1584062
H       4.03558588      9.51268005      -9.3125686
H       4.73110247      8.53675461      -8.3467006
O       4.34520769      7.82421112      -6.6034755
H       4.64477825      8.54795074      -6.0279173
H       4.65665913      7.01334763      -6.2096343
O       3.35579205      12.4717779      -7.5932102
H       4.28993130      12.2287254      -7.4979496
H       2.98811364      11.8982191      -8.2757482
O       1.78119183      9.06208992      -6.9498853
H       1.81482899      9.73357582      -6.2548809
H       2.55227971      8.49773884      -6.8107523
O       6.66705847      13.9457836      -5.3603210
H       7.41582775      14.4475708      -5.0505609
H       6.36781740      13.3952913      -4.6140804
O       3.87649179      14.5866613      -5.7811317
H       3.61534524      14.0188942      -6.5188884
H       4.83837032      14.5282326      -5.7269177
O       7.13646793      10.5663233      -9.1683979
H       7.66044664      10.4150429      -9.9494085
H       6.36430645      9.97784042      -9.2408733
O       5.98445797      11.8096571      -7.0475220
H       6.41807127      12.5613356      -6.6280207
H       6.52232361      11.4753466      -7.7796411
O       5.58990669      12.3223343      -3.4424841
H       4.69551802      12.6583567      -3.2996623
H       5.48235130      11.4490271      -3.8386225
O       2.33719277      10.4150896      -9.2463579
H       2.04260182      9.90265560      -8.4719476
H       1.64627719      10.3485203      -9.8999538
O       4.95143747      10.0836086      -5.1559100
H       4.04293680      10.4153051      -5.1031241
H       5.39527178      10.6210051      -5.8309593