30
 Ord_Energy   -92.7895050
O       4.00267887      9.26284695      8.78647041
H       3.50068426      9.49758816      9.56264114
H       3.76210594      8.34687996      8.56496334
O       6.29070759      6.06420946      7.50443697
H       6.94977045      5.47260332      7.85672283
H       6.53606892      6.96347761      7.78950357
O       6.74791622      9.70973873      5.50703764
H       6.51289749      8.82001686      5.18802643
H       7.37227392      10.0699530      4.88340330
O       1.15130675      5.94244909      4.82439470
H       0.48124808      6.26936483      4.22988367
H       1.83393252      6.63268232      4.86341619
O       5.91645241      7.18596983      4.87244368
H       4.95595169      7.29444122      4.85219669
H       6.10084343      6.65302610      5.65540457
O       1.69923198      4.80321169      7.27986526
H       1.42439747      3.89141893      7.32426643
H       1.42358685      5.12506819      6.40537500
O       3.58269620      6.68167257      7.93538284
H       2.93293428      5.97205734      7.82631683
H       4.46707821      6.30815125      7.82399225
O       3.17155957      7.74565029      5.34598637
H       3.33138585      8.69444466      5.44918966
H       3.28404474      7.36713266      6.22941542
O       3.98869109      10.2799015      6.08053303
H       4.92670250      10.2510681      5.85259390
H       3.94650292      10.0961361      7.02757502
O       6.72336769      8.67203331      8.14973927
H       5.87449980      8.98238182      8.49012184
H       6.85181808      9.12913322      7.30785847