48
 Ord_Energy   -165.8149260
O       -6.7923660      17.9458160      -5.2350168
H       -6.0386152      17.6513042      -5.7387671
H       -6.5869002      18.8451576      -4.9226594
O       -11.369137      19.5966454      0.62469786
H       -11.308859      19.5325718      -0.3376235
H       -11.395394      20.5383282      0.83907378
O       -9.6544446      21.8123264      -2.8281648
H       -9.4794521      21.8109779      -3.7775216
H       -10.122116      20.9909897      -2.6184616
O       -10.649899      19.3310966      -2.0914409
H       -9.7948045      19.0385418      -1.7412285
H       -10.888935      18.6967335      -2.7774765
O       -11.096561      22.3266430      1.34169900
H       -10.651608      22.8011818      0.61691862
H       -11.706478      22.9419556      1.73930657
O       -9.0396871      18.6270084      1.60504043
H       -9.9253540      18.9074287      1.30799723
H       -9.1681232      17.9175167      2.22875214
O       -8.3464279      16.7405014      -3.1906328
H       -7.7293038      17.0613499      -3.8608751
H       -8.1800355      17.2680206      -2.3971347
O       -6.4593091      20.5134068      -4.4259805
H       -7.1898198      20.9863434      -4.8433022
H       -6.5265851      20.7059078      -3.4813737
O       -7.1746883      21.0647411      -1.7657131
H       -6.9716701      21.6673126      -1.0401235
H       -8.0221757      21.3574600      -2.1333100
O       -8.9257154      21.5402603      -5.5169239
H       -9.1592264      20.6166325      -5.7212266
H       -9.0837268      22.0468102      -6.3088493
O       -8.1503295      18.5574188      -1.0654354
H       -7.6906952      19.3886032      -1.2500873
H       -8.3297758      18.5234547      -0.1177473
O       -10.834672      17.3392410      -4.0709033
H       -11.383583      16.5687752      -4.1867861
H       -9.9687614      17.0249481      -3.7493388
O       -9.3850860      18.9090195      -5.9607224
H       -8.5184993      18.4998550      -5.8379173
H       -9.9935388      18.4040451      -5.4078826
O       -8.5127325      21.3815365      2.12791848
H       -9.4124660      21.7121315      2.00742841
H       -8.5715169      20.4232178      2.03307796
O       -9.6565923      23.5203381      -0.6192257
H       -8.7348232      23.4528351      -0.3430079
H       -9.7246942      23.0348072      -1.4534777
O       -7.0296340      22.8381424      0.39005017
H       -6.3763170      23.3606472      0.84663421
H       -7.4921550      22.3101749      1.06595087