24
 Ord_Energy   -68.7071381
O       -12.527904      23.4003315      4.40588474
H       -13.320295      23.9236698      4.49361229
H       -12.461199      22.8566322      5.20959473
O       -9.7414960      24.0821266      4.45894337
H       -9.3209381      23.7505093      3.65462542
H       -10.693810      23.9867840      4.32888222
O       -10.509452      22.1636753      0.51437527
H       -10.808709      21.7706318      -0.3003491
H       -11.066963      21.7861423      1.21769977
O       -8.4999752      22.8057194      2.23418093
H       -9.1702127      22.6241055      1.55234337
H       -7.6865935      22.9937840      1.77381945
O       -9.3132724      22.2421303      6.40764141
H       -9.3972978      22.9706650      5.76527548
H       -8.5957689      22.4697456      6.99203730
O       -9.3594360      20.6511707      3.97625279
H       -9.2808065      21.0393124      4.85507917
H       -8.9301548      21.2816525      3.38334250
O       -11.809809      21.2027493      2.70726562
H       -11.036160      20.8769951      3.19070053
H       -12.149527      21.9449997      3.22087908
O       -12.059435      21.7718983      6.56756163
H       -11.098521      21.8857384      6.63521767
H       -12.210389      20.8285656      6.55189323