78
 Ord_Energy   -288.8417990
O       -1.0932534      -3.0311154      2.27214189
H       -0.1909684      -2.9573419      1.93106131
H       -1.6455347      -3.2613507      1.51463283
O       2.14374406      -0.9373961      -2.5597312
H       2.13239944      -1.8385189      -2.2149453
H       1.22602763      -0.6839914      -2.7518215
O       -2.2311332      0.74274981      1.27775991
H       -2.0681842      0.32947156      2.13492498
H       -1.5074016      1.36354329      1.10478731
O       2.53342218      -0.5209159      -5.2990526
H       2.28799796      0.41188178      -5.3515201
H       2.57302570      -0.7225581      -4.3546918
O       2.24476599      1.03689998      -0.6127942
H       2.26641246      0.33463018      -1.2791882
H       2.66913950      0.67490653      0.17332471
O       -0.4887555      -4.1355784      -2.2097965
H       -1.2009455      -3.9937792      -1.5738549
H       -0.7400196      -3.6691388      -3.0186720
O       1.50210811      2.12853150      -5.3170074
H       1.52105548      2.37651038      -4.3764172
H       1.90918195      2.84876199      -5.7922968
O       -1.0897266      -2.4714817      -4.3838788
H       -0.9082986      -1.6695302      -3.8678499
H       -0.5693386      -2.3926101      -5.1915988
O       -2.3816257      -3.2280687      -0.3022333
H       -1.8101663      -2.4453227      -0.3408305
H       -3.2156016      -2.9516347      -0.7012385
O       -3.2880650      0.96322970      -5.3746519
H       -3.8458702      1.32851972      -6.0559823
H       -2.3965351      0.87456253      -5.7589174
O       -3.7383413      -1.6154847      -4.1601732
H       -2.8838916      -2.0390146      -4.3207411
H       -3.6812032      -0.7471806      -4.5742786
O       1.34490686      -2.3426610      1.01793744
H       2.01791878      -1.7086017      1.29379513
H       1.66895168      -2.8015242      0.23115787
O       1.55820520      2.86419166      -2.7047761
H       1.92452249      2.32778211      -1.9915464
H       0.75182873      3.26038362      -2.3530828
O       -4.5933769      -2.0628827      -1.6312511
H       -5.5028831      -2.3480176      -1.6649644
H       -4.3119859      -1.9250288      -2.5540012
O       -0.7755210      0.72876547      -6.3159758
H       -0.4067675      -0.1442641      -6.4947766
H       -0.0494195      1.25718746      -5.9617161
O       -1.3953887      -0.6562126      3.55925315
H       -1.7808738      -0.7929875      4.42055283
H       -1.3175153      -1.5338851      3.14481824
O       -0.9186464      3.74416690      -1.6050514
H       -1.4686040      3.10328429      -2.0896850
H       -1.3610029      4.58681441      -1.6633778
O       -3.8770973      0.63577470      -0.9827700
H       -3.4433842      0.67147146      -0.1198560
H       -4.1558482      -0.2769326      -1.1207002
O       -0.0034209      2.24189946      0.59516602
H       -0.3401546      2.87022422      -0.0551733
H       0.71627389      1.76649612      0.15502245
O       0.53082127      -1.8111442      -6.5878901
H       1.30621489      -1.4163090      -6.1492400
H       0.85034196      -2.2465171      -7.3732210
O       -0.7309496      -1.0122821      -0.2929929
H       0.00821315      -1.3700973      0.21473403
H       -1.2421367      -0.4233039      0.27561324
O       0.90828375      0.94433422      2.96060006
H       0.16072687      0.40282247      3.24241211
H       0.57331310      1.54878131      2.28546788
O       2.00159077      -3.5285223      -1.4310751
H       1.10676007      -3.7946821      -1.7142938
H       2.58238802      -4.2570995      -1.6323215
O       -2.3822808      1.85289586      -2.8864122
H       -2.9564461      1.43698348      -2.2214673
H       -2.7600264      1.66523615      -3.7535436
O       3.04366738      -0.2318490      1.80820861
H       3.83316033      -0.1618522      2.33768546
H       2.32565235      0.19481031      2.31156926
O       -0.4976458      -0.2595040      -2.8566312
H       -1.0595796      0.51338842      -2.9718448
H       -0.6075310      -0.5416318      -1.9336754