30
 Ord_Energy   -92.7505569
O       4.12554932      5.05034161      4.51433039
H       4.26289845      4.70018816      5.41191196
H       3.22472882      5.36047935      4.47518492
O       5.58635426      2.80854726      3.47065783
H       4.99718761      3.54772830      3.66773272
H       6.42446423      3.20622587      3.19887352
O       8.54023838      3.20421243      5.74191284
H       7.82064438      2.57173944      5.86021519
H       8.50939274      3.46234775      4.81167603
O       4.80259275      3.95511937      6.92823458
H       5.20026445      3.09902716      6.71921492
H       4.67643023      4.00883818      7.88661623
O       7.28677750      5.33358192      6.96982050
H       6.40144062      4.94398117      6.96238613
H       7.87425423      4.64363384      6.62589121
O       6.72252560      6.25345421      4.33741617
H       6.99298143      6.15240288      5.25991678
H       5.79093647      6.00058985      4.31327677
O       4.74447823      4.29580975      9.64712048
H       4.19146681      4.50600100      10.3948555
H       5.57481050      4.78224373      9.78184795
O       8.02699661      4.20729017      3.09392571
H       8.58629227      4.49624252      2.37830091
H       7.61618471      5.00630951      3.47029209
O       7.13209248      5.68407774      9.71223068
H       7.98506451      5.75481033      10.1329165
H       7.30683851      5.65747547      8.75728798
O       6.08411884      1.67366219      5.89021111
H       5.94827509      0.73024446      5.90583324
H       5.88185120      1.97444510      4.98560905