18
 Ord_Energy   -45.2255936
O       24.0381851      6.51480818      25.0299778
H       24.3632336      7.38964844      24.7786961
H       24.1186867      6.47158957      25.9933014
O       25.5241222      8.82128716      24.3131886
H       25.5894108      9.31843472      23.5003262
H       26.3422108      8.30809116      24.3742847
O       25.9919586      5.01083326      23.9015560
H       25.7343369      4.10326767      23.7714100
H       25.2135696      5.46354437      24.2744312
O       27.7223244      6.98275232      24.5457306
H       28.5074043      6.94417715      24.0063534
H       27.1613579      6.23037767      24.2807159
O       27.3744888      6.78914499      27.3545265
H       27.5454044      6.88679504      26.4067993
H       28.1005993      6.27305698      27.6982822
O       24.6220455      6.52618313      27.7698593
H       24.3569469      7.17387533      28.4191170
H       25.5835743      6.62227774      27.6823616