21
 Ord_Energy   -57.0332336
O       32.8639526      3.51032925      -7.2428255
H       33.3222847      2.87803173      -6.6621885
H       33.3789825      3.56553864      -8.0432167
O       31.1095371      3.54558849      -3.4507987
H       30.6000118      3.70125651      -2.6591537
H       31.4101276      2.62366676      -3.4116981
O       31.9596119      0.87596095      -3.6384391
H       32.0980186      0.12043685      -3.0736494
H       31.3483162      0.59519273      -4.3431525
O       30.2290096      0.37581596      -5.6588611
H       29.7691231      -0.1392947      -6.3150568
H       30.1635132      1.30411375      -5.9439449
O       30.2974815      3.05467987      -6.1816606
H       31.1109810      3.25899076      -6.6635594
H       30.4361248      3.38533926      -5.2859368
O       34.0806007      2.05304384      -5.2478056
H       33.4581413      1.54362535      -4.7172474
H       34.1013031      2.93446994      -4.8461937
O       33.4598694      4.72827625      -4.6081118
H       33.2258034      4.68727207      -5.5425205
H       32.6543312      4.47831917      -4.1366272