81
 Ord_Energy   -300.7026820
O       0.09595344      6.26744416      4.53302903
H       0.81304185      5.77637039      4.97538339
H       0.15198955      7.16983675      4.83492202
O       -3.1370405      3.30281733      2.34449002
H       -2.3422552      3.33176362      1.79338244
H       -2.8821892      3.72265509      3.17606994
O       2.15026755      1.53637831      3.15411535
H       2.41516549      0.67848767      3.50838044
H       1.25529249      1.71192368      3.47602642
O       1.64771863      -2.3075056      0.62700677
H       1.37408316      -1.5899675      0.04341558
H       1.09750277      -2.2302682      1.41666566
O       2.72800884      -1.0245596      4.07195974
H       3.33710724      -1.2047636      3.34015035
H       1.84624441      -1.2897856      3.77013137
O       -0.9899385      0.40753756      1.55350334
H       -0.7877509      1.35476658      1.53329659
H       -1.9418137      0.34574993      1.69539885
O       2.10684756      4.77895071      5.56404496
H       1.91750837      3.95548371      6.03165595
H       2.71225514      4.55700140      4.84490431
O       -3.7015990      0.67504451      2.32786302
H       -4.5555106      0.48672954      1.94965963
H       -3.5961094      1.64537401      2.32578709
O       4.04145335      -1.3380289      1.70159600
H       4.00366079      -0.4734582      1.27755420
H       3.31945298      -1.8370346      1.28926985
O       -1.3773052      -2.1266694      5.32633183
H       -1.7149933      -2.9632052      5.63447914
H       -0.8611180      -1.7414247      6.05838572
O       0.81324672      0.21309979      -0.6080719
H       0.13874555      0.19038591      0.08583724
H       0.67103799      1.04219735      -1.0825748
O       3.39539365      3.96862881      3.16456541
H       3.01862752      3.07767768      3.24594062
H       3.93827954      3.95598044      2.36801438
O       0.41351320      2.87750659      -1.5438737
H       1.07774869      3.52190746      -1.2399737
H       0.06327980      3.21393831      -2.3647714
O       0.02967725      -0.9034247      7.27282586
H       -0.3013007      -0.1137029      7.71749414
H       0.97001901      -0.7502256      7.11982877
O       4.50961786      3.55019751      0.56125390
H       4.09319696      2.67157369      0.50199069
H       5.39018021      3.46234873      0.20602798
O       -0.6510511      3.11697647      1.07588000
H       -0.0774428      3.77187637      1.49597886
H       -0.3918151      3.06411483      0.14833039
O       1.38093078      2.29045051      6.72269647
H       0.71091678      2.15104437      7.40559993
H       1.93867632      1.50187443      6.70854074
O       2.11267343      4.70298072      -0.4678710
H       1.70208368      5.02239678      0.34627293
H       2.99410161      4.40299419      -0.2138604
O       1.02609638      5.07049436      2.13268094
H       1.84844639      4.71548833      2.49850067
H       0.62310101      5.59146602      2.83635266
O       2.72313172      -0.2004240      6.65228340
H       2.78587627      -0.5352506      5.74079697
H       3.52201480      -0.4698522      7.09842321
O       -2.4968844      0.38914703      4.83659783
H       -2.9907493      0.41535113      4.00704890
H       -2.2324259      -0.5250075      4.99613330
O       -1.8507592      4.23182047      4.67384531
H       -1.2378861      3.49735282      4.51492241
H       -1.3107727      5.03038884      4.66804811
O       0.23042135      -1.6007686      3.05512829
H       -0.1911236      -0.8628563      2.59152131
H       -0.3571249      -1.8671602      3.77169798
O       -2.6796838      2.45329625      6.72160885
H       -2.7788614      1.69618052      6.12714555
H       -2.5118196      3.21037704      6.14590821
O       3.15189305      1.19468584      0.61602464
H       2.44393442      0.81739044      0.08002095
H       2.76022199      1.33317796      1.49207671
O       -0.7503637      1.61109568      8.40637656
H       -0.9814233      1.80091899      9.31145055
H       -1.4798827      1.94523581      7.85350318
O       -0.2057826      1.99109731      4.43854919
H       -0.9311957      1.36755530      4.57242740
H       0.28949112      2.06594512      5.26692967