15
 Ord_Energy   -35.1111832
O       25.3912506      17.3305836      2.58189440
H       25.8196564      17.9912891      2.01918435
H       25.3418922      16.5354710      2.05523324
O       23.6314964      20.0071354      0.56567907
H       22.7868233      20.2073441      0.17384598
H       23.4590225      19.8226643      1.50615323
O       25.8944550      21.0694790      3.40755010
H       26.0767212      21.9953842      3.26093936
H       26.1729698      20.6164684      2.59889936
O       23.5896416      19.4220333      3.24076319
H       24.0611019      18.5793571      3.18359447
H       24.2608852      20.0637779      3.51139760
O       26.2813072      19.5583191      0.98314494
H       25.3616810      19.7409439      0.71662319
H       26.8199997      19.6580639      0.20314743