48
 Ord_Energy   -165.9753570
O       6.90198231      21.8413582      4.81149387
H       7.56749725      21.3107090      5.27197409
H       6.19279957      21.9903107      5.45384026
O       9.39742088      21.7872601      1.31077540
H       9.14539051      22.4347076      1.98127770
H       10.1994867      21.3614464      1.64014018
O       9.62498856      18.2899513      2.42274666
H       9.15330791      18.0764599      3.23882723
H       8.95766544      18.6297646      1.81395626
O       6.17236233      19.6733532      3.21305847
H       6.59407902      19.7211494      2.34585953
H       6.34747791      20.5057697      3.67375135
O       5.47063160      18.3740540      8.09633923
H       4.67507076      18.8147087      7.77064896
H       6.09203053      19.0799484      8.31382370
O       11.4803238      20.2646217      2.52955651
H       10.8806725      19.4969921      2.51635504
H       12.3335524      19.9531288      2.24071741
O       5.14827013      21.8924751      6.89625692
H       4.45152903      21.2259197      6.83971882
H       5.78668928      21.5502930      7.53492594
O       8.69900513      23.4385128      3.50636125
H       7.97918558      22.9518929      3.94310308
H       8.51457214      24.3665905      3.62542558
O       3.33863974      19.7043095      6.74823666
H       3.59588122      19.2032967      5.95358753
H       2.38872552      19.6539536      6.80943584
O       8.75376892      20.2563686      6.21691656
H       8.59072590      19.4372425      5.72965765
H       9.50490093      20.7124786      5.80857468
O       7.68170452      19.7440453      0.85863090
H       8.26016235      20.5214672      0.95962119
H       7.46913767      19.6756992      -0.0681153
O       7.20967102      20.5905399      8.44346905
H       7.82691336      20.4707260      7.70114803
H       7.72779894      20.8949814      9.18397331
O       10.5998831      21.6899948      4.81205797
H       10.0873613      22.3975964      4.40331459
H       11.0027122      21.2018661      4.08209896
O       4.25851822      18.2305832      4.66276979
H       4.82249355      18.7283878      4.05482674
H       4.82356453      17.5572510      5.06026459
O       6.11912394      16.5931625      6.15920019
H       5.92402077      17.1832199      6.90966940
H       6.02859926      15.7000952      6.47966290
O       7.95536137      18.0874424      4.67345381
H       7.43162584      17.4628315      5.19028759
H       7.32302713      18.6049709      4.15250349