69
 Ord_Energy   -252.0313324
O       17.9260004      10.0825339      -14.332209
H       18.2848440      9.20128605      -14.179192
H       17.3678092      10.2749987      -13.564579
O       15.9022092      3.89621899      -15.360334
H       16.5016906      4.64313828      -15.539094
H       16.2753796      3.13430831      -15.795580
O       12.4372414      7.79014487      -13.737499
H       13.3765774      7.92502330      -13.942571
H       12.3201661      6.83782723      -13.637057
O       11.7473568      7.23136678      -9.7189795
H       12.5455132      7.05245992      -9.2072796
H       11.9400628      8.01687376      -10.247705
O       13.4131141      5.10519982      -16.093249
H       14.2503288      4.65686894      -15.922983
H       12.9111360      5.04245951      -15.271336
O       16.4717290      10.8267626      -16.496312
H       16.9229748      11.4957993      -17.004149
H       17.0540672      10.6012762      -15.747956
O       17.4788713      6.03514576      -15.844498
H       17.0043931      6.74350125      -16.301950
H       18.0114383      6.46454231      -15.165847
O       14.2909992      6.46280722      -8.5888247
H       14.4905242      6.19253550      -7.6967049
H       14.2088820      5.64857849      -9.1174443
O       15.9159056      8.11068128      -16.849646
H       15.0732184      7.89622427      -17.271958
H       16.0702576      9.06132501      -16.920038
O       11.1689219      4.86586137      -10.927749
H       11.2948185      5.73996209      -10.516864
H       10.3300395      4.53519472      -10.618348
O       13.8703559      4.27896345      -10.148867
H       12.9339573      4.32274923      -10.379771
H       14.3436648      4.15351304      -10.981347
O       15.0673226      4.35634836      -12.709597
H       15.3767376      4.05558971      -13.573057
H       15.5892446      5.14390948      -12.498299
O       12.6891550      9.25454278      -11.441641
H       12.8669266      10.1541448      -11.738919
H       12.5018842      8.73680290      -12.240360
O       15.1100037      8.18792182      -14.169833
H       15.3974894      9.01024072      -13.753984
H       15.4034560      8.18483293      -15.088782
O       18.7195802      7.38561478      -13.643063
H       19.5245032      7.15292025      -13.186272
H       17.9846632      7.12461450      -13.063434
O       12.2509092      9.28520773      -16.108194
H       12.1031246      8.78390374      -15.294619
H       12.5735671      8.64021854      -16.747841
O       13.9250049      11.2823491      -15.196517
H       13.3141557      10.6331110      -15.577492
H       14.7570973      11.1956059      -15.671828
O       12.4291628      5.02701525      -13.432059
H       11.8795670      4.90540596      -12.647994
H       13.3330029      4.80391910      -13.166317
O       13.4218254      7.24541007      -17.751152
H       13.0651025      6.97421780      -18.592692
H       13.3792858      6.46749141      -17.165537
O       13.5818830      11.7076373      -12.573913
H       13.3147202      12.6094224      -12.420330
H       13.6510327      11.5953808      -13.540968
O       16.4034335      6.74339947      -12.284303
H       15.9397969      7.13148091      -13.045404
H       16.0642525      7.22228905      -11.517228
O       15.9860441      10.2743821      -12.369019
H       15.8702476      9.69852922      -11.602619
H       15.2314974      10.8776748      -12.379623
O       15.1556258      8.38922987      -10.423375
H       14.9631521      7.79475268      -9.6874584
H       14.2953832      8.66643346      -10.773519