75
 Ord_Energy   -277.2053220
O       12.2079334      11.5509319      -16.304777
H       11.7224979      11.0537252      -15.629640
H       12.7218122      12.2234678      -15.846563
O       15.5939178      7.65448141      -13.120784
H       15.3563681      8.38039017      -13.718539
H       16.0978241      8.04489899      -12.393986
O       15.9246807      11.5721340      -11.054068
H       15.1978016      11.5522099      -11.694030
H       16.6449261      12.0610056      -11.470411
O       16.5792866      13.0196781      -14.895517
H       16.7211037      12.2659149      -15.485723
H       15.6413660      13.2349939      -14.942561
O       13.2784433      7.99452877      -16.609945
H       13.0557089      8.65799046      -17.277074
H       14.0389738      7.49945354      -16.943489
O       12.1343660      9.96129036      -8.9474935
H       11.6198874      10.2750463      -8.2091302
H       13.0426979      10.2896881      -8.8187770
O       12.9627533      7.35884809      -12.284318
H       12.4382668      7.16622829      -13.070977
H       13.8910179      7.37269258      -12.559528
O       13.9003267      11.3829241      -12.907148
H       13.1678486      10.9436178      -12.455236
H       14.2106209      10.7788849      -13.599546
O       17.1002922      6.87989902      -15.373146
H       16.6241207      6.98121977      -14.538768
H       17.7982864      7.54686689      -15.368273
O       13.3063374      7.38412189      -9.4827785
H       13.1415091      7.22949839      -10.422308
H       12.7854776      8.16071224      -9.2439022
O       18.9751415      9.00970554      -15.362196
H       19.8909492      8.95968342      -15.622324
H       18.9598274      9.35482788      -14.450644
O       15.5951080      6.82273102      -17.599502
H       16.1606770      6.81212521      -16.805769
H       15.7903366      6.02692842      -18.086237
O       18.8221092      10.0177364      -12.876367
H       18.2990170      9.55544662      -12.208831
H       18.6095085      10.9545183      -12.784641
O       16.9086514      10.6605902      -16.329017
H       16.5800114      10.3467741      -17.184745
H       17.6683083      10.1186600      -16.082510
O       14.8004818      9.65277290      -14.832144
H       15.5345325      10.0121622      -15.349060
H       14.2128019      9.18765545      -15.437833
O       10.9325275      9.97181797      -14.394862
H       10.9896297      9.02197838      -14.547427
H       11.1087227      10.0795174      -13.451781
O       15.8296833      8.00047016      -8.6924448
H       16.1105824      7.42086267      -7.9898524
H       14.9468622      7.69734049      -8.9715108
O       11.5238218      7.14974403      -14.708469
H       10.9391127      6.48675346      -15.066893
H       12.1468906      7.38823652      -15.416462
O       17.9604282      12.7287188      -12.600543
H       17.4715595      12.8692350      -13.432066
H       18.5311394      13.4835329      -12.485728
O       16.9323273      8.97035789      -11.075335
H       16.5613823      9.86506844      -11.061568
H       16.6816788      8.55854034      -10.239560
O       14.7367468      10.6668978      -8.6725940
H       15.2016706      9.82940292      -8.5547914
H       15.1650076      11.1083021      -9.4184866
O       15.7483892      9.54352093      -18.535614
H       14.8190660      9.80029869      -18.588739
H       15.7541838      8.59962845      -18.333385
O       11.9148893      9.89850140      -11.735438
H       11.8683462      9.99621296      -10.776922
H       12.2811365      9.01821995      -11.907322
O       13.7381659      13.4113350      -14.716880
H       13.3152008      14.1994648      -14.384174
H       13.7443361      12.7673893      -13.987138
O       12.9351149      10.0852165      -18.410877
H       12.3643847      10.2890768      -19.146240
H       12.6792097      10.6832800      -17.683290