12
 Ord_Energy   -20.0008640
O       6.03437424      -2.8753562      -8.7013597
H       6.60670185      -2.4570572      -8.0451517
H       6.50582409      -2.7953512      -9.5297069
O       5.18159246      -0.5355510      -4.3367257
H       5.43410349      0.37057754      -4.5772252
H       5.34759092      -0.6142672      -3.4005870
O       6.20146227      -0.8223539      -6.9131703
H       5.60860395      -1.2352029      -7.5491585
H       5.81920624      -0.9795321      -6.0357189
O       6.16350031      1.70700133      -5.6960573
H       6.27890348      0.96832478      -6.3152322
H       6.93141317      2.26214314      -5.8087163