90
 Ord_Energy   -337.9679572
O       -1.5928030      10.7125422      -5.5273108
H       -1.4202332      11.0811392      -6.3892539
H       -2.2933053      10.0436870      -5.6415244
O       -2.3106091      12.1039184      -3.1385358
H       -3.0969739      11.6319250      -2.8364081
H       -2.0710391      11.7108898      -3.9867632
O       -2.5929572      6.28117363      -5.0687370
H       -2.8408165      5.34789097      -5.0786098
H       -1.6477495      6.33353380      -4.8658650
O       0.04173126      9.19952493      -3.8372764
H       -0.4380900      9.71699060      -4.4959403
H       0.11573928      8.28964998      -4.1566593
O       -6.6267081      6.56746641      -3.6898247
H       -6.3612487      7.46654756      -3.9117280
H       -6.4557537      6.46913433      -2.7428407
O       1.69642304      7.85779115      -0.2143027
H       2.52672322      7.88764040      0.25351927
H       1.62236495      8.69631174      -0.7076626
O       0.97156530      4.16151438      -5.4889279
H       0.25416294      3.56405953      -5.7346687
H       1.33786918      3.80768752      -4.6683869
O       -5.7947970      9.26265673      -4.1519589
H       -6.4550414      9.91434495      -4.3768505
H       -5.2868880      9.62818972      -3.4082298
O       -0.5449303      12.2570032      -1.0680669
H       -0.2606930      13.1649855      -0.9952279
H       -1.1556431      12.2197513      -1.8250823
O       -2.7618384      2.89016963      -2.1314967
H       -2.3995779      3.56844872      -1.5470136
H       -2.0185549      2.33253213      -2.4044597
O       0.08659478      6.48342573      -4.3530103
H       0.44613755      5.76062007      -4.8882982
H       0.26273797      6.25114852      -3.4315592
O       -1.7861700      5.08331223      -0.7016745
H       -2.3312670      5.60557671      -1.3117212
H       -1.9949779      5.38652484      0.18959867
O       -4.6428815      7.55935177      1.02587123
H       -5.1242531      7.08481940      0.33278448
H       -4.7443492      8.50258118      0.86161140
O       -6.1198096      4.05821963      -4.5717812
H       -6.8974852      3.73427188      -5.0183177
H       -6.3061928      4.98225796      -4.3260963
O       -3.3793570      3.63495195      -4.7407038
H       -3.1686033      3.41530491      -3.8206615
H       -4.3386489      3.73856885      -4.7914267
O       -5.5431490      3.40271250      -1.7754065
H       -4.6297878      3.08885671      -1.8072488
H       -5.8197972      3.48978759      -2.6949494
O       -4.2577374      10.3004675      -2.1294876
H       -3.4183263      9.81877977      -2.0635437
H       -4.5693378      10.4063366      -1.2221931
O       -0.5554544      1.63722040      -3.1966431
H       -0.7125748      1.73577864      -4.1437593
H       0.24320417      2.14626724      -3.0108399
O       -2.0889351      10.9649241      0.95869734
H       -1.5852093      11.4719648      0.31045871
H       -1.6227647      10.1222858      1.04727315
O       -4.7198095      10.4143484      0.62194385
H       -5.2475846      10.9448339      1.21290464
H       -3.7887878      10.6511686      0.78742188
O       -5.6238820      6.09343667      -1.1137929
H       -5.6830945      5.12854832      -1.1686733
H       -4.8107273      6.33115614      -1.5882118
O       1.31291236      10.1361410      -1.5826508
H       0.74412677      10.8736944      -1.3323546
H       1.01507752      9.86122561      -2.4623029
O       -1.9108148      8.89788469      -1.8399769
H       -1.2038065      9.04370847      -2.4807689
H       -1.5230615      8.81576427      -0.9600510
O       -3.4828906      8.82695266      -5.7371367
H       -4.3209815      8.94188010      -5.2746953
H       -3.2134784      7.90860160      -5.5982755
O       0.69525267      5.68100028      -1.7231557
H       -0.1518783      5.44800152      -1.3144533
H       1.08146910      6.40275061      -1.2133735
O       -1.2269957      2.37514932      -5.9002379
H       -2.0375576      2.80561858      -5.5809533
H       -1.4783186      1.83924631      -6.6483299
O       -2.3889680      6.32155050      1.74285130
H       -3.2337360      6.75814896      1.52162817
H       -2.4916324      5.94572089      2.61249947
O       -0.8796928      8.46186957      0.74655972
H       0.02933465      8.20254440      0.55497422
H       -1.3298634      7.70680012      1.14650851
O       1.71041680      3.35638303      -2.8298670
H       1.40827832      4.16724624      -2.3892698
H       2.56290578      3.14318186      -2.4582799
O       -3.2630388      6.62929557      -2.4010797
H       -3.1492314      6.48763349      -3.3480498
H       -2.8097040      7.45694168      -2.1858266