51
 Ord_Energy   -178.1163940
O       -13.292637      18.2817135      4.29069567
H       -13.076908      19.1656437      4.57546711
H       -13.839309      18.3717422      3.48919320
O       -17.122713      12.7755156      1.58832967
H       -16.328949      12.4333305      2.02226591
H       -17.553499      13.3419609      2.24069929
O       -18.065984      14.7209349      3.46775985
H       -17.520834      14.5244436      4.25036955
H       -18.957056      14.8462029      3.78358483
O       -12.698515      17.1890106      0.15853904
H       -12.238111      17.5373383      -0.5999463
H       -12.990770      16.2900887      -0.0789684
O       -13.525813      14.6707125      -0.3533047
H       -14.477786      14.5309849      -0.4287504
H       -13.171818      13.9122839      0.12687132
O       -11.905996      16.3524075      2.71920943
H       -12.218639      17.0335827      3.32843828
H       -12.021003      16.6990776      1.82476544
O       -14.287938      15.8992863      5.53546524
H       -14.380378      15.4895735      4.65975142
H       -13.980352      16.7927685      5.35083914
O       -12.707819      13.5337276      5.80590200
H       -12.133366      13.5526695      5.02645254
H       -13.094680      14.4140224      5.88509178
O       -12.588103      12.4254875      1.17426944
H       -13.337203      12.2310915      1.76264262
H       -12.282731      11.5875740      0.83451927
O       -14.378539      14.9656248      2.93380809
H       -15.046701      15.4687128      2.45329714
H       -13.516642      15.3619223      2.75501347
O       -16.504798      14.1761770      5.61836147
H       -16.038955      13.3344278      5.69085979
H       -15.843537      14.8581419      5.79715729
O       -11.239500      13.7191772      3.43174982
H       -11.571890      13.2515230      2.65806985
H       -11.279746      14.6578083      3.20247221
O       -14.645068      18.3393459      1.92637181
H       -14.023928      18.0548115      1.24398005
H       -15.415952      17.7633858      1.83598936
O       -16.529342      16.2768993      1.67869091
H       -16.536769      15.7537813      0.86636061
H       -17.135219      15.8467293      2.29744983
O       -14.709435      12.2565517      2.90387678
H       -14.600865      13.2220526      2.95115352
H       -14.755047      11.9471130      3.81618500
O       -14.801832      11.8568115      5.67035437
H       -14.744078      11.1605721      6.31809711
H       -14.002143      12.4068756      5.77474403
O       -16.364000      14.4006252      -0.4317628
H       -16.652740      13.7442694      0.22805887
H       -16.886369      14.2526731      -1.2155292