60
 Ord_Energy   -214.7379150
O       -0.9865686      -7.4867119      13.7646990
H       -0.2453865      -6.9061360      14.0157099
H       -1.2604160      -7.9421668      14.5561056
O       0.71407294      -2.9817540      14.0049305
H       0.64175153      -2.3987276      14.7566671
H       -0.1112713      -2.8826386      13.4978018
O       -3.7672510      -6.4272847      10.0750170
H       -3.1270883      -7.0596032      9.69631195
H       -4.6302042      -6.8222150      9.99320412
O       2.61091256      -6.3025460      11.9928207
H       1.83051419      -5.9290638      11.5515795
H       3.35117960      -5.7174687      11.7913456
O       2.61978436      -2.5616490      11.9267263
H       2.03607750      -2.6860508      12.6847076
H       2.04088879      -2.4237766      11.1640024
O       2.41031289      -8.8273992      10.9997444
H       2.55881166      -7.9622283      11.4199219
H       3.07818651      -9.4189920      11.3365593
O       -1.8230835      -7.9706039      9.08049583
H       -1.3344261      -8.3451957      9.83102131
H       -1.1982197      -7.4257092      8.59010220
O       1.06600416      -5.8062882      14.2801371
H       0.94382417      -4.8495521      14.2489376
H       1.72567713      -6.0108361      13.6037626
O       -2.0836505      -5.5134058      12.1249228
H       -1.8378157      -6.2308964      12.7231245
H       -2.7283196      -5.8546619      11.4925861
O       4.48542500      -4.3768124      11.2456350
H       3.86432385      -3.6726539      11.5092955
H       5.35579300      -4.0901331      11.5073032
O       0.00787808      -5.9521589      8.18413544
H       0.50649857      -5.2647404      7.72426128
H       0.14785861      -5.7910342      9.13243389
O       -0.4156072      -8.8278827      11.2750998
H       -0.5799894      -8.4355258      12.1399565
H       0.54111242      -8.9251928      11.1957760
O       -2.4160080      -4.3764801      8.65135956
H       -3.0006916      -5.0067110      9.09088516
H       -1.6549258      -4.8890023      8.35761070
O       0.38673916      -5.1999044      10.8008232
H       -0.4598507      -5.2849373      11.2575979
H       0.52341664      -4.2676515      10.5858717
O       1.60934389      -3.7674553      7.35971212
H       2.41458654      -4.1553115      7.75358582
H       1.85613060      -3.4252440      6.50533009
O       3.68036032      -4.9621806      8.55185699
H       3.40551615      -5.8917965      8.54703236
H       4.01686764      -4.7692747      9.43315887
O       0.82714826      -2.5982515      9.80067062
H       1.07384467      -2.8865883      8.91226959
H       -0.0768676      -2.2605361      9.76347256
O       -1.8965002      -1.9927126      9.82758045
H       -2.4589545      -1.3167761      9.45971107
H       -2.1357514      -2.8290391      9.38865471
O       -1.5755720      -2.8283851      12.5613604
H       -1.8747422      -3.7466337      12.4893198
H       -1.7311919      -2.4343700      11.6962748
O       2.51142478      -7.4767885      8.47212601
H       2.45922613      -8.0380878      9.25493145
H       1.61171556      -7.1879468      8.28649044