33
 Ord_Energy   -104.2425460
O       0.00040803      -1.3814575      17.1612377
H       -0.7836948      -1.4324022      17.7237587
H       0.01383432      -2.2071688      16.6605835
O       -3.3697707      -3.5439374      12.3878679
H       -2.6483392      -2.9851243      12.7035332
H       -3.8189818      -3.8510932      13.1868887
O       -0.4738319      -3.5883128      15.4167471
H       -0.9290092      -2.9634730      14.8265715
H       0.01452920      -4.1886286      14.8594055
O       -2.5669572      -1.4978909      18.4028320
H       -2.8755927      -1.2247582      19.2623672
H       -2.8735666      -0.8264722      17.7669582
O       -0.6213561      0.47785994      15.2654266
H       0.01491982      1.18367696      15.1929369
H       -0.3067871      -0.1153276      15.9712400
O       -2.8681650      -3.8922681      16.9014206
H       -2.8322777      -3.1273698      17.4895878
H       -2.0061712      -3.9306771      16.4678040
O       -1.7774355      -1.6911554      13.8951349
H       -1.3026721      -0.9012129      14.1832485
H       -2.7057838      -1.5273658      14.1147146
O       -4.5078487      -1.1908472      14.5044212
H       -4.7103304      -2.1059465      14.7402639
H       -4.8026514      -1.0801857      13.5888367
O       -5.0740737      -1.4101436      11.8122463
H       -5.0909309      -1.1354823      10.8994989
H       -4.5187273      -2.2063715      11.8436642
O       -4.7075872      -3.9743294      14.9223986
H       -5.4282584      -4.5584249      15.1421680
H       -4.0804495      -4.0089473      15.6663923
O       -3.2436509      0.30186048      16.4890995
H       -2.4208583      0.53994977      16.0460339
H       -3.8000478      -0.1175058      15.8168879