51
 Ord_Energy   -177.7815250
O       -5.5913081      -3.1350972      3.59494662
H       -6.3657727      -3.5308740      3.20325518
H       -4.8431091      -3.7221090      3.38505530
O       -1.2849782      -0.7535210      7.31161499
H       -0.8812943      0.07948758      7.03345919
H       -0.5751551      -1.4098119      7.32874537
O       -5.0700197      -0.3503016      3.29867625
H       -4.1963615      -0.2706903      2.89286661
H       -5.2682504      -1.2938631      3.33644605
O       -0.9509056      -3.5211737      3.17776561
H       -1.4048528      -2.9870095      3.85113883
H       -0.4604572      -2.8865859      2.64508319
O       1.07531393      -0.6804304      4.70150757
H       0.76197130      0.12220059      5.13678074
H       1.06486976      -1.3669101      5.37882614
O       -3.4563930      -4.7966852      3.26746678
H       -2.5973675      -4.4303245      3.01878953
H       -3.3164811      -5.2172493      4.12476397
O       -0.3058727      -4.7267527      5.61803675
H       -1.1837854      -5.0534925      5.84971905
H       -0.3652929      -4.4609856      4.68992662
O       0.29749930      -1.1868848      2.14108753
H       1.00866044      -0.9781311      1.54190314
H       0.62224293      -0.9923172      3.03934836
O       -4.9033722      1.12525964      5.57533646
H       -5.6553173      1.70805168      5.64422274
H       -5.0313892      0.60000145      4.76504326
O       -2.3089938      1.87826991      4.66475964
H       -2.2668049      1.29226792      3.89672232
H       -3.1817753      1.73854589      5.05137539
O       -2.3040795      -1.9010651      4.95891428
H       -1.9034355      -1.4476931      5.71068954
H       -3.0773861      -2.3589837      5.30620289
O       -4.1469168      -0.8437262      7.49505663
H       -4.4104304      -0.1253029      6.90537691
H       -3.1898412      -0.7681487      7.60236454
O       0.79987407      -2.5864050      6.85762405
H       1.53565061      -2.8859350      7.38504124
H       0.40967604      -3.3799288      6.45038843
O       -4.5063562      -3.2181825      6.20714188
H       -4.5127677      -2.4052310      6.73635912
H       -5.0771517      -3.1050021      5.43716049
O       -3.0260131      -5.5059948      6.03356647
H       -3.3877093      -6.2073855      6.56935549
H       -3.5634059      -4.7145915      6.21093512
O       -2.3052551      -0.2006690      2.78226304
H       -1.4741199      -0.4384265      2.35767031
H       -2.3650243      -0.7761551      3.56262517
O       -0.0921584      1.50004077      6.12535906
H       -0.8818887      1.71203566      5.59411144
H       0.27001619      2.32865119      6.42561150