87
 Ord_Energy   -325.5084587
O       -3.0193317      2.18801451      3.39100242
H       -2.6340234      1.92325490      2.54643269
H       -2.3591490      2.76394647      3.79864448
O       2.01758518      -0.8873260      3.08902818
H       2.13026458      -1.4015494      3.89958058
H       1.06964759      -0.8572418      2.91103310
O       1.75275923      -4.0591845      1.37154888
H       2.34137285      -3.3718274      1.03848787
H       2.07624221      -4.3262511      2.24064607
O       2.09063772      -2.4415049      5.35220608
H       1.17605083      -2.4775847      5.66861469
H       2.29285846      -3.3032487      4.96719741
O       -2.6557538      -1.8301072      4.46990568
H       -3.2392012      -1.1232692      4.77012629
H       -2.0418205      -1.4265382      3.83860618
O       -4.0707733      0.49890853      5.20143332
H       -3.7446287      1.11233282      4.51703148
H       -5.0054835      0.66118772      5.29625971
O       -2.5824830      -4.2874945      3.16923453
H       -3.4215194      -4.7372015      3.10263860
H       -2.7420523      -3.4695363      3.66791625
O       -0.6368375      -1.0653428      8.39459718
H       -1.1793115      -0.3359174      8.06606477
H       0.16715496      -0.6626858      8.74466607
O       0.33798982      -1.4107719      -0.6773457
H       -0.1663035      -2.0533821      -0.1650395
H       1.24566164      -1.4615215      -0.3498661
O       3.03032960      1.64667898      2.75800033
H       3.49776966      1.57418821      1.91843413
H       2.69594215      0.75441020      2.94196416
O       -0.6168242      0.98628737      -1.3901654
H       -0.2712712      0.09543281      -1.1927103
H       -1.0251375      0.94293842      -2.2499428
O       1.77220126      0.20583540      9.21404277
H       2.24988182      0.06122049      10.0264459
H       2.34305040      -0.1172680      8.49296352
O       3.89239799      1.12333256      0.07824800
H       4.62659548      1.46145345      -0.4278113
H       3.10358392      1.61597387      -0.2115482
O       -1.3388772      1.43315662      1.26791885
H       -1.2344699      1.30352221      0.31761319
H       -0.6305650      2.03202486      1.54915854
O       2.55371405      1.70369970      5.53263031
H       1.67930471      1.30902647      5.38548243
H       2.92022087      1.86710593      4.65679457
O       1.62982618      2.50946997      -0.5128148
H       0.88182606      2.04512056      -0.9083570
H       1.29855260      2.90563737      0.30286513
O       0.71071909      3.08848170      2.13514698
H       0.28744675      3.44730086      2.92493309
H       1.51980630      2.63953669      2.42052067
O       3.24742762      -0.5445813      7.07921121
H       2.93923615      -1.2771941      6.53049511
H       3.18645573      0.24475360      6.52441486
O       -1.9837046      0.99129232      7.04477433
H       -1.8346702      1.93549231      7.18594423
H       -2.7816852      0.88413659      6.51288913
O       2.88998841      -1.5236265      0.55271169
H       3.34546585      -0.7212202      0.27224537
H       2.63872549      -1.3591674      1.47464112
O       -0.7474670      3.42792263      4.52155682
H       -0.4529744      2.51108954      4.63903496
H       -0.8882999      3.75746296      5.41617292
O       -0.7563013      -0.7853555      2.75178414
H       -0.9875055      -0.0329883      2.18788082
H       -0.7502977      -1.5885181      2.20793564
O       -0.3127427      -5.0715152      4.77708915
H       -0.3995710      -4.3536852      5.42084994
H       -1.0679445      -4.9776532      4.18701647
O       -0.5543463      -2.6771908      6.20736544
H       -1.3126960      -2.3726539      5.69623788
H       -0.5718800      -2.2005394      7.05141172
O       -1.1260674      3.67524651      7.32413603
H       -0.2318079      3.36303728      7.55999642
H       -1.3357738      4.38615180      7.92313347
O       1.30818281      2.67161619      7.86258791
H       1.42547388      1.89600390      8.42503798
H       1.85169082      2.51136339      7.07975585
O       2.29005970      -4.9236549      4.04134474
H       2.76088653      -5.7188319      4.27703471
H       1.35469877      -5.0702929      4.27420265
O       -0.7836236      -3.0966907      1.30994518
H       -1.4111059      -3.6382155      1.79966579
H       0.08401359      -3.5335172      1.34578002
O       -0.0272578      0.79136752      5.05452261
H       -0.6539263      0.70660736      5.78600158
H       -0.2976583      0.18839862      4.35551502