60
 Ord_Energy   -214.7338560
O       -5.5481495      -1.4327980      6.47962427
H       -5.0976624      -1.4831353      7.33085966
H       -5.9737715      -2.2875080      6.33471203
O       0.29491657      -6.2571864      7.27503443
H       0.48003674      -6.1279068      6.33753729
H       0.16288501      -5.3681430      7.63398314
O       -2.5781741      -4.2970762      6.35244036
H       -2.5878493      -3.7598221      5.55188417
H       -1.8006773      -4.0594310      6.87268686
O       0.50641638      -1.3793546      6.75899076
H       1.09723127      -0.6525737      6.93380404
H       -0.4024858      -1.0296764      6.82312775
O       -1.6366399      -6.6606392      3.58041525
H       -2.1246132      -6.9603800      4.36011124
H       -2.2612438      -6.1252718      3.07758260
O       -0.3923967      -3.6806607      8.03205013
H       -0.8022376      -3.4589328      8.87744236
H       0.02211332      -2.8833448      7.67892981
O       0.69788498      -5.6461758      4.51134825
H       1.41689527      -6.0220179      4.00927925
H       -0.1225277      -6.0148639      4.13752317
O       -3.1119580      -6.9691696      5.93242311
H       -2.8666400      -6.0350933      6.03640270
H       -2.7765820      -7.4063615      6.72229433
O       -1.7465101      -7.7073717      8.30483055
H       -0.9739190      -7.2378964      7.93985701
H       -1.4265040      -8.5390310      8.64376354
O       -5.3063654      -5.7887001      4.59710789
H       -4.8296556      -5.5123405      3.80500579
H       -4.6906147      -6.3467927      5.09031057
O       -4.7376184      -4.4477701      8.03637791
H       -3.9967222      -4.4099988      7.40852833
H       -5.5403776      -4.4082541      7.50574780
O       -2.0534825      -0.5973650      6.95352554
H       -2.5817349      -0.4323075      6.16435432
H       -2.6369676      -1.0450692      7.57972050
O       -3.6091771      -4.8959698      2.48800278
H       -3.7575714      -4.6300702      1.58449733
H       -3.2543335      -4.1193084      2.95580816
O       -3.7963736      -1.9456780      8.75992107
H       -4.2058820      -2.7983000      8.54899406
H       -3.1479930      -2.1626186      9.44016457
O       -6.7104134      -4.0252809      6.09153557
H       -7.6367397      -4.2419161      6.02889252
H       -6.2381897      -4.6471691      5.50857067
O       -3.7924027      -0.4344691      4.69793940
H       -4.1321044      0.35079291      4.27816629
H       -4.4941763      -0.7673732      5.28735209
O       0.08925460      -2.8611202      4.34363699
H       0.37459087      -3.7773199      4.45423698
H       0.35809135      -2.3783304      5.13395262
O       -2.5845162      -2.8391649      3.93298244
H       -1.6177341      -2.7682781      3.98865700
H       -2.9729809      -1.9760758      4.11740589
O       -2.9840545      -5.6325335      9.85261917
H       -3.7290613      -5.3518800      9.30249214
H       -2.5716488      -6.3718562      9.39061737
O       -1.8396545      -3.2441370      10.4039173
H       -2.2371039      -4.1278076      10.2893057
H       -1.5879433      -3.1733226      11.3204765