84
 Ord_Energy   -313.0811063
O       3.35913510      -3.2729869      2.61173288
H       2.58146226      -2.6988571      2.72551670
H       3.55230738      -3.6431296      3.46897763
O       2.73938901      0.18068048      -2.7845462
H       2.42684695      1.01227725      -2.4011110
H       3.70734506      0.24790895      -2.8023244
O       6.46643744      -1.9398521      -3.4061448
H       6.13872264      -2.5491883      -2.7325395
H       6.04067612      -2.2030292      -4.2316106
O       2.96080536      -4.7257515      0.15162031
H       3.68380642      -4.4294291      -0.4149356
H       3.09218761      -4.3007875      1.00764839
O       -0.1206439      -2.5715796      0.42253943
H       -0.0140644      -3.4601930      0.05973223
H       -0.6678695      -2.0734386      -0.1998416
O       1.35505938      0.89097972      1.47045570
H       1.67592036      0.20178109      0.86750626
H       2.03070131      1.57909148      1.44649487
O       -1.0645752      -1.1237901      -1.7307046
H       -0.5158615      -1.7626274      -2.2093197
H       -1.7524054      -0.8482876      -2.3483249
O       0.41356117      -3.1268689      -3.0139339
H       1.35153897      -2.9940484      -3.2138734
H       0.37272831      -3.8531342      -2.3802417
O       0.27755042      2.89628720      -5.2918439
H       -0.3314528      2.72159153      -4.5518127
H       -0.2111527      3.39997658      -5.9371291
O       1.14292587      -1.6783267      2.76837994
H       0.57719826      -2.0363441      2.06910586
H       1.17860922      -0.7287429      2.60510746
O       3.44122464      2.71229075      0.80686785
H       4.15366685      2.10019895      0.54383083
H       3.85681994      3.44287678      1.25608527
O       4.64650235      -1.6576257      0.68442716
H       4.44452793      -2.1851367      1.46547823
H       3.77883034      -1.4223743      0.31573269
O       2.01636825      2.56001868      -1.6032429
H       1.13443545      2.26929124      -1.3330839
H       2.52767760      2.70098759      -0.7957897
O       4.89662356      -3.4085097      -1.4943011
H       4.92639850      -2.7697231      -0.7667645
H       4.21409885      -3.1142416      -2.1141168
O       5.30475769      0.97136120      -0.0284380
H       5.46057243      0.88598511      -0.9779853
H       5.23621877      0.07079363      0.31459818
O       5.09839508      2.25639784      -4.9893808
H       4.29130066      2.71782604      -4.6981781
H       5.67480076      2.91864212      -5.3615009
O       5.44343829      0.52423826      -2.8017760
H       5.90286732      -0.2984850      -3.0293242
H       5.49332183      1.12849381      -3.5523440
O       3.05050806      -2.5246960      -3.4707859
H       2.95478272      -1.5776592      -3.3068488
H       3.59769556      -2.6174788      -4.2623201
O       2.18011765      -1.0704523      -0.3217454
H       1.43546723      -1.6747376      -0.2162518
H       2.20072486      -0.7258131      -1.2208378
O       -2.6637354      -0.2464257      -3.8700017
H       -2.0067371      -0.7218361      -4.4113251
H       -3.5240361      -0.4768162      -4.2091674
O       2.81498525      3.44279787      -4.1326956
H       1.98244474      3.37372396      -4.6149532
H       2.58272650      3.29148635      -3.2066840
O       -1.3957703      2.22267727      -3.2747641
H       -1.1382714      2.11265026      -2.3522201
H       -1.9095236      1.43735051      -3.5048303
O       4.78868640      -2.5138180      -5.6545206
H       4.54617579      -1.6196122      -5.9570615
H       4.91875852      -3.0456375      -6.4345722
O       -0.6829260      -1.5802533      -5.1356795
H       0.05039549      -0.9679849      -5.2877346
H       -0.3435395      -2.2654103      -4.5463661
O       -0.3481579      1.40520493      -0.7350179
H       0.04401712      1.30156053      0.14197814
H       -0.5595063      0.51441166      -1.0487277
O       3.99042735      -0.0252520      -6.3015001
H       4.42278533      0.75812005      -5.9411395
H       3.04726762      0.08430489      -6.1222550
O       1.38997269      0.31782382      -5.2849579
H       1.81965972      0.31180981      -4.4194001
H       0.99772816      1.19459007      -5.3898246
O       0.49418253      -4.9826978      -0.8838805
H       1.40205503      -4.9477766      -0.5290557
H       0.19460145      -5.8824071      -0.7882840