48
 Ord_Energy   -166.0044560
O       0.53670454      -2.4610757      1.95007312
H       1.46344852      -2.7002859      2.09453964
H       0.30272821      -2.8291952      1.08695626
O       -4.6328964      -0.3327391      2.03345180
H       -4.8679566      -0.5294351      1.11821449
H       -3.6772663      -0.4642417      2.09741068
O       -0.2129099      -3.7921214      -0.4366490
H       -0.5265185      -4.5913252      0.01313080
H       -0.9981119      -3.2736733      -0.6531831
O       -6.0726380      -3.5406563      0.98310095
H       -6.0837469      -3.2333691      1.89800715
H       -5.3395166      -4.1678242      0.92141438
O       -3.5423762      -4.7890338      0.85251754
H       -3.2490761      -4.0150280      0.35029715
H       -2.8065338      -5.4148349      0.84062344
O       -5.6816029      -2.3258650      3.57030225
H       -5.3647112      -1.5423539      3.08577824
H       -6.2927856      -2.0138490      4.23196173
O       -1.0483539      -5.9919171      1.08019626
H       -0.9304675      -5.5716443      1.94315696
H       -0.2537131      -6.5260386      0.93804580
O       2.98085666      -3.7016990      2.10602856
H       2.96050501      -4.0289382      1.19743669
H       2.77174711      -4.4620494      2.66254711
O       1.85799003      -5.9167504      3.58100271
H       0.98860764      -5.4952969      3.67760301
H       2.06857371      -6.3046207      4.42704391
O       -3.2064292      -3.6521942      3.38996577
H       -3.3671619      -4.1142320      2.55360794
H       -4.0524287      -3.2666750      3.64883995
O       -5.2755951      -1.4344707      -0.5540881
H       -5.9132866      -1.1854307      -1.2174278
H       -5.6519832      -2.1912531      -0.0696439
O       -2.6405756      -2.4038932      -0.3668757
H       -3.4900708      -2.0277123      -0.6280311
H       -2.4037716      -1.9760302      0.46958438
O       -2.0194571      -1.3951667      2.17095613
H       -1.0629304      -1.5296613      2.18512774
H       -2.4044466      -2.1279809      2.67305326
O       1.50274098      -6.9954071      0.93096214
H       1.73183799      -6.7619466      1.83983493
H       1.93355691      -6.3346581      0.37474197
O       -0.5564374      -4.5451006      3.46657157
H       -0.1662147      -3.7803158      3.01689506
H       -1.4659986      -4.3021779      3.68082523
O       2.41630769      -4.6863274      -0.5442937
H       1.52405500      -4.3163671      -0.6432642
H       2.84803391      -4.5870146      -1.3894707