39
 Ord_Energy   -129.8044280
O       3.73428702      11.1924181      -6.6920728
H       3.71188521      10.4192572      -6.1130271
H       3.69183612      10.8423891      -7.5922145
O       0.18353967      14.6698313      -7.8953976
H       -0.1753407      13.7735491      -7.8583588
H       0.57904023      14.8434296      -7.0315341
O       3.15735579      8.83707714      -5.2121706
H       3.54476547      8.29866028      -4.5276670
H       2.25770497      9.06464672      -4.9155883
O       -0.6420607      9.07969189      -7.2132020
H       0.23595954      8.74148083      -7.4648227
H       -1.2747761      8.41290855      -7.4664359
O       3.83432817      14.0356350      -7.1157884
H       3.47600985      14.1643839      -8.0037574
H       3.96554661      13.0862980      -6.9999785
O       3.45500827      10.0440531      -9.2582149
H       2.77513981      10.6789799      -9.5511131
H       4.04517412      9.90710354      -9.9935398
O       0.61102092      9.62839508      -4.6639952
H       0.78090298      10.5763474      -4.7670655
H       0.04357811      9.38777161      -5.4063196
O       1.81216598      14.9392166      -5.5389986
H       2.60445261      14.7024584      -6.0555377
H       2.06323123      15.6472511      -4.9527740
O       1.58494818      11.8607426      -9.8296623
H       1.88728094      12.7765970      -9.8594694
H       0.89347601      11.8289061      -9.1545314
O       -0.2497749      11.8449621      -7.6864142
H       -0.5585892      10.9334898      -7.6184797
H       0.30112773      11.9830036      -6.9017453
O       2.36421943      14.5592136      -9.5191927
H       2.41105628      15.2868080      -10.133456
H       1.54989684      14.6830254      -8.9983282
O       1.90165579      8.24050140      -7.7297143
H       2.38436460      8.28810406      -6.8953328
H       2.41988039      8.76242065      -8.3554048
O       1.39907193      12.1740990      -5.4628577
H       1.48213172      13.1229868      -5.3123011
H       2.21427298      11.8842773      -5.8976454