39
 Ord_Energy   -129.5598300
O       0.15932417      11.1270037      -7.2671966
H       -0.2890999      10.2733316      -7.2839160
H       1.02750981      10.9767256      -6.8637142
O       0.65851390      8.56111336      -9.9602375
H       0.90338713      9.48120403      -10.125885
H       1.47852588      8.07867050      -9.8014707
O       5.02624702      8.68077755      -9.8490533
H       4.34870243      8.04171658      -9.5788116
H       5.83984804      8.18968773      -9.9311122
O       2.86276603      13.5371695      -5.7059698
H       2.91722417      14.1024017      -4.9402809
H       2.01705933      13.7395487      -6.1449060
O       3.99934554      13.7159367      -8.3533029
H       3.77495408      13.7462568      -7.4155468
H       4.15477848      12.7814512      -8.5537328
O       0.56647551      13.8963270      -7.1399006
H       0.21600454      12.9944725      -7.1480178
H       0.81826705      14.0878782      -8.0516529
O       3.89028883      10.9690466      -8.8365221
H       4.37685680      10.2285900      -9.2214469
H       3.03701305      11.0271635      -9.2886724
O       1.71326911      14.1280403      -9.7780456
H       2.57290578      14.0616608      -9.3242034
H       1.78016102      14.8566332      -10.389010
O       2.76732302      10.7676325      -6.3122901
H       3.24721956      10.7824507      -7.1549496
H       2.87836385      11.6454086      -5.9272265
O       2.93628788      7.05786848      -8.9775533
H       2.67605019      7.38355446      -8.0971345
H       2.82593870      6.11056805      -8.9618063
O       2.01910567      8.05064774      -6.6235709
H       1.06996238      8.13849926      -6.7769017
H       2.33409905      8.92428398      -6.3569440
O       1.29030573      11.3277416      -9.8285188
H       0.82892889      11.2666273      -8.9786701
H       1.36767507      12.2718668      -10.013400
O       -0.6626616      8.46618080      -7.5807023
H       -0.2803917      8.45387268      -8.4771299
H       -1.4805219      7.97872639      -7.6204047