27
 Ord_Energy   -80.8955383
O       32.5374603      -15.484075      14.4624691
H       31.6689491      -15.061134      14.4804430
H       32.9413757      -15.257733      13.6140928
O       29.8767757      -14.585362      14.1757450
H       29.2068100      -14.178312      14.7178440
H       29.5537148      -15.476071      13.9477262
O       31.7853336      -18.159679      13.9464188
H       32.3060074      -18.476944      14.6911936
H       31.9345245      -17.202072      13.9821911
O       30.6783504      -14.255322      11.4459743
H       30.3699112      -14.193807      12.3590927
H       31.6341038      -14.384559      11.4992313
O       33.3844223      -15.113752      11.7962999
H       33.1075592      -16.010969      11.5354128
H       34.2161179      -14.943713      11.3629169
O       29.7194920      -16.666086      10.5847635
H       29.1942577      -16.611305      9.79117107
H       30.0056477      -15.759809      10.7973547
O       32.3511124      -17.568094      11.2413473
H       32.2262917      -17.999345      12.0972567
H       31.4633465      -17.397541      10.9012632
O       33.5139809      -17.612802      16.1364975
H       33.2917824      -16.780683      15.6924677
H       33.5335884      -17.406469      17.0683899
O       29.2335167      -17.101570      13.3648281
H       29.9705448      -17.668195      13.6291857
H       29.2626286      -17.066373      12.3998871