27
 Ord_Energy   -80.9808655
O       30.6430016      -19.147981      12.2957382
H       30.2679462      -19.909299      11.8597584
H       30.7602501      -19.389482      13.2286644
O       30.5017014      -17.308076      16.1018524
H       29.7195835      -16.860143      15.7457771
H       31.2468185      -16.715513      15.9555225
O       33.6553497      -18.401828      14.6349478
H       33.6608620      -18.285268      13.6725159
H       32.9063339      -18.978965      14.8214226
O       31.0784969      -19.687479      14.9906797
H       30.8905010      -20.390317      15.6062975
H       30.8176537      -18.854888      15.4272003
O       28.4080276      -16.071474      14.8106289
H       28.7876453      -16.169080      13.9206848
H       27.5343246      -15.711912      14.6876822
O       32.9411240      -15.904833      15.3963776
H       33.2758865      -16.795564      15.1826096
H       33.5071945      -15.554257      16.0787411
O       33.1864052      -17.852474      11.9480476
H       32.9431877      -16.925277      12.0606165
H       32.3493233      -18.332435      11.9067545
O       32.2671204      -15.237026      12.7721434
H       32.5744400      -14.360859      12.5522728
H       32.4838638      -15.382407      13.7068520
O       29.7007160      -16.443172      12.4220629
H       29.9411793      -17.370983      12.3095264
H       30.5356922      -15.961438      12.4766760