84
 Ord_Energy   -313.1616284
O       -0.2936688      -2.7699950      -3.2388940
H       -1.1873017      -3.1326491      -3.3291742
H       -0.3683897      -1.8405211      -3.4834913
O       4.46771422      -2.9310672      -3.0976440
H       4.99258830      -3.6868157      -3.3463929
H       3.66752211      -2.9518375      -3.6535140
O       -4.7910183      -0.7855561      0.50012215
H       -4.2022915      -0.2916524      1.09946057
H       -5.6179724      -0.9005314      0.96015188
O       -2.9856347      -2.6465271      -0.5823700
H       -3.6570664      -2.0940241      -0.1613673
H       -2.4881448      -3.0938731      0.11344496
O       5.04418036      -0.1465680      -2.8020111
H       4.99143686      -1.1047881      -2.8957413
H       4.32560614      0.20126459      -3.3484575
O       2.96604438      -2.3433988      -0.8002219
H       3.55352493      -2.6290838      -1.5097865
H       2.46492906      -1.5867866      -1.1440569
O       1.23176352      -0.7158090      -6.0887605
H       1.01118540      -0.6003069      -7.0091051
H       0.41881744      -0.5510659      -5.5810307
O       -2.9763425      -3.3263296      -3.2861577
H       -3.0725322      -3.1897846      -2.3318409
H       -3.3066890      -2.5180539      -3.6955754
O       2.38768360      2.21478276      -0.5734263
H       3.32272109      1.98165981      -0.5152782
H       2.23931217      2.67006771      -1.4161575
O       -0.8940235      -0.1918772      -4.4220574
H       -0.8168967      0.72140975      -4.1185605
H       -1.8385654      -0.3948983      -4.4518760
O       -0.9227717      2.51181681      -3.5655376
H       -1.4664767      3.14647096      -4.0266954
H       -1.3184601      2.39494376      -2.6846864
O       0.55952920      -3.7325716      -0.7345719
H       0.23349551      -3.4380232      -1.5950352
H       1.45069305      -3.3690873      -0.6551884
O       5.01094903      1.19941319      -0.4524659
H       5.83992311      1.66030377      -0.3558094
H       5.06600648      0.70059172      -1.2874730
O       -4.3113938      0.53296162      -1.9847632
H       -4.5850689      0.08144222      -1.1775681
H       -3.6186978      1.14988410      -1.7144732
O       1.84286044      3.11408512      -3.1049694
H       0.89646756      3.01119809      -3.2615119
H       2.25203116      2.36738614      -3.5650157
O       -1.1627774      -3.7513253      1.29539433
H       -1.1679081      -4.6084268      1.71130076
H       -0.5079893      -3.7912550      0.57130437
O       0.72060632      2.17355647      1.62897769
H       1.31135882      2.26721726      0.86806763
H       1.05698386      1.43070657      2.14112388
O       -3.6509308      -0.7102000      -4.2970330
H       -3.9260679      -0.2733969      -3.4710768
H       -4.3620631      -0.5875363      -4.9204687
O       -1.8205237      2.98907796      1.42801749
H       -0.8890194      2.71687476      1.53254722
H       -1.9060539      3.84201466      1.84402700
O       2.68396821      0.62367252      -4.0682800
H       2.20833450      0.26072176      -3.3039641
H       2.30051443      0.21765869      -4.8528411
O       -3.0586454      0.50802525      2.11295447
H       -2.7230019      1.39657671      1.94740641
H       -2.2786851      -0.0541902      2.22277076
O       -1.0712777      -0.5519480      -0.6676001
H       -0.8837709      -0.6281640      0.27871912
H       -1.6926585      -1.2611560      -0.8695444
O       -0.7706526      -1.0841946      2.05078432
H       -0.8351273      -2.0409484      1.93231835
H       0.10456702      -0.8689116      2.39699510
O       1.71169340      -0.1759895      2.94252374
H       2.05465286      -0.1783878      3.83217056
H       2.46302259      -0.3726638      2.35456899
O       2.17973987      -2.9467386      -4.5502381
H       1.35266892      -3.0713799      -4.0652393
H       1.98050886      -2.2692369      -5.2058086
O       -2.0387225      1.96478736      -1.1566175
H       -1.6873526      1.07682151      -0.9828309
H       -2.0188925      2.43830326      -0.3168047
O       3.76297858      -0.7000329      1.28396215
H       3.54574597      -1.3884934      0.63958641
H       4.25960677      -0.0350011      0.79378941
O       1.47364206      -0.1806842      -1.6910385
H       0.56943856      -0.3727774      -1.4108819
H       1.75188103      0.62286567      -1.2293887