45
 Ord_Energy   -152.7519990
O       2.84468699      -2.6942930      13.0760584
H       3.39810300      -2.7942047      12.2833490
H       3.41271901      -2.8462188      13.8271275
O       5.87205982      -4.2719440      8.96003246
H       6.03090286      -3.7959692      8.13489914
H       5.28959703      -5.0057306      8.72711945
O       2.74171972      1.23842323      10.9500847
H       2.75192738      2.11785984      11.3161831
H       2.15907550      0.71070814      11.5227604
O       -0.5660249      -1.9076893      10.6171551
H       -1.4647285      -1.6964676      10.3764267
H       -0.0598394      -1.9562708      9.78953934
O       1.95015407      -4.5623302      9.56149483
H       1.61496663      -3.8011231      9.06965637
H       1.45565271      -4.5995721      10.3936310
O       1.82391655      -2.5641076      5.76049519
H       2.44962454      -3.3106782      5.78720093
H       1.41587114      -2.5792524      4.89907885
O       3.36231112      -0.7732029      9.21665096
H       3.20542002      -0.0019738      9.78027916
H       3.72682548      -1.4777101      9.76743317
O       3.70328307      -4.5121302      5.91969490
H       4.55435801      -4.0606155      5.99179316
H       3.69206691      -5.1611661      6.63372087
O       1.17959332      -0.4781692      12.3919992
H       0.51734614      -0.8990940      11.8305979
H       1.74128103      -1.1908296      12.7222204
O       6.02765274      -2.9494338      6.43711901
H       6.77802229      -2.6766123      5.91642141
H       5.42398167      -2.1862483      6.48114824
O       1.09849524      -2.1409771      8.42034531
H       1.84486949      -1.5911030      8.70506573
H       1.20186317      -2.2734353      7.46957445
O       0.64586914      -4.1533637      11.9264050
H       0.09853802      -3.4313654      11.5904760
H       1.32475138      -3.7359581      12.4714794
O       4.09281349      -3.0778884      10.6547356
H       3.34521794      -3.5929186      10.3210182
H       4.86600304      -3.4164743      10.1803112
O       4.14687586      -1.0019255      6.56165743
H       3.94291520      -0.8034285      7.48726845
H       3.33886743      -1.3728214      6.18962717
O       3.76419473      -6.1266264      8.25033665
H       3.63789058      -7.0534448      8.43591404
H       3.07099748      -5.6465277      8.73552704