87
 Ord_Energy   -325.2204304
O       -3.2037894      1.81602413      1.91913404
H       -3.3439832      2.09227667      2.82129244
H       -2.8742422      0.90108442      1.95245171
O       -1.0248945      2.55047965      0.27188355
H       -1.8107948      2.46636928      0.82135720
H       -0.3589656      1.94907066      0.64800865
O       -2.4024841      -0.7986390      1.68403347
H       -1.9209032      -0.7443751      0.84176930
H       -3.2277985      -1.2608160      1.49200995
O       -4.8861155      0.86333894      -0.1823622
H       -4.4141241      1.30140803      0.53627130
H       -4.9374358      -0.0686550      0.06233396
O       -1.0637497      -0.8821128      -0.6987282
H       -0.2358708      -0.4372187      -0.9217545
H       -0.9186411      -1.8356600      -0.7750895
O       0.82436016      0.96664531      1.38944437
H       1.65889687      1.23743152      1.78728450
H       0.60031814      0.12075371      1.79524100
O       -4.7843864      -1.8838217      0.67855677
H       -5.5085887      -2.4078807      1.00949571
H       -4.3723790      -2.3972784      -0.0395451
O       0.14964516      -1.4674614      2.64630263
H       -0.7944883      -1.3516095      2.48300953
H       0.47663361      -2.1230818      2.01433933
O       -1.5316630      2.57342254      -2.4504876
H       -2.4522309      2.31944703      -2.5822450
H       -1.3535504      2.50592471      -1.5002396
O       -4.1658940      1.56866854      -2.6895000
H       -4.9203604      1.91830909      -3.1558184
H       -4.4677106      1.34766365      -1.7897686
O       1.12822220      4.30621852      0.08105825
H       0.32023480      3.79448926      0.23039571
H       1.57524187      4.38884651      0.93539211
O       -2.8241201      -0.9155376      -2.8495189
H       -2.2356498      -0.7898420      -2.0883993
H       -3.3432999      -0.1076395      -2.9268284
O       1.29097238      0.20089745      -1.7053242
H       1.76347449      0.94833390      -1.3221864
H       0.97052599      0.48631082      -2.5708132
O       2.48667373      4.20804741      2.48413403
H       2.62728118      4.66303289      3.31047181
H       2.80551107      3.30170864      2.62156564
O       -3.5179189      -3.1766156      -1.3294654
H       -2.6333844      -3.5210327      -1.1520053
H       -3.4029851      -2.4867629      -1.9980183
O       0.34280436      4.71379318      -2.5992222
H       -0.4204464      4.12102319      -2.6124043
H       0.61421159      4.77966195      -1.6732023
O       -0.7423896      -3.6642650      -0.9223246
H       -0.0858614      -3.7474597      -0.2179113
H       -0.2691127      -3.7350713      -1.7628151
O       2.70582164      -0.8724874      3.71995084
H       1.76952086      -1.0455294      3.55464479
H       3.16750735      -1.6355443      3.35195630
O       2.83861342      2.50261160      -1.1858644
H       2.28681318      3.13602563      -0.7055109
H       2.79154174      2.74090864      -2.1199796
O       1.38129809      -3.2749261      0.86628249
H       2.14001163      -3.3996500      1.44975137
H       1.74331891      -2.8858658      0.05600522
O       4.78214360      1.17188063      0.21477402
H       5.62319453      1.59754615      0.06358168
H       4.12725155      1.65663799      -0.3152558
O       0.32150789      1.28031216      -4.0677973
H       1.02834844      1.92710971      -4.1793682
H       -0.3840992      1.72327996      -3.5706642
O       3.30943983      1.56697641      2.60725125
H       3.17345916      0.73778619      3.09135496
H       3.90206837      1.38086705      1.86895569
O       2.44512169      -2.2532976      -1.5129337
H       2.08701533      -1.3550058      -1.5875510
H       2.01398568      -2.7708304      -2.2024150
O       -0.5388609      -1.3903030      -4.3958256
H       -1.4104960      -1.2878774      -3.9896381
H       -0.1864794      -0.4950539      -4.4717958
O       0.71565039      -3.5342984      -3.3407257
H       0.28856370      -2.7661210      -3.7623253
H       0.83180312      -4.1914544      -4.0214225
O       2.28859012      3.32548920      -3.8500775
H       1.60725235      3.91056996      -3.4685643
H       2.76639356      3.84056932      -4.4942080
O       3.81090749      -3.1144081      2.31653582
H       4.17764770      -2.6059903      1.56990107
H       4.48382369      -3.7340457      2.58460757
O       4.61953304      -1.6879236      0.16319804
H       3.98147725      -1.9102753      -0.5288023
H       4.69510744      -0.7267423      0.16649574