21
 Ord_Energy   -57.1370087
O       32.0711555      0.38166535      -1.4481489
H       31.2583294      0.62937665      -1.9138760
H       31.8099899      0.18812133      -0.5508546
O       33.5499229      2.09409142      -3.0747628
H       33.0564346      1.86612988      -3.8788151
H       33.2643127      1.45625341      -2.4088251
O       31.7724495      1.73055816      -5.2025857
H       31.0368614      1.53843844      -4.6085100
H       31.7169838      2.67530608      -5.3961381
O       34.5234222      4.30420303      -4.3804965
H       35.4639778      4.30160856      -4.5364990
H       34.3386002      3.51740384      -3.8402459
O       31.9602890      4.63503265      -5.3072862
H       31.8654232      5.33371401      -5.9487452
H       32.9006042      4.61355162      -5.0565171
O       31.2636299      3.85324526      -2.6458442
H       32.0970535      3.37154317      -2.5603745
H       31.3360214      4.30540085      -3.4960448
O       29.9177437      1.49519408      -2.9340333
H       30.2693844      2.39051867      -2.7800476
H       28.9674072      1.56342161      -2.9035964