36
 Ord_Energy   -118.7159420
O       6.40489388      -3.6784598      -23.197353
H       5.66653299      -3.0619244      -23.297863
H       6.92512226      -3.3452012      -22.451963
O       3.94023061      -6.8958716      -23.776393
H       4.32418394      -6.5513544      -22.953142
H       3.93399715      -7.8466911      -23.698228
O       5.04463625      -5.5439481      -21.632228
H       5.31835794      -5.3619628      -20.724863
H       5.57272148      -4.9571490      -22.194860
O       5.32215500      -4.9995751      -25.429992
H       5.90651417      -4.6068882      -24.766607
H       4.90726280      -5.7567181      -24.998329
O       2.74082756      -3.8886871      -21.709346
H       2.22059917      -4.2219457      -22.454736
H       3.47918868      -4.5052223      -21.608839
O       1.84064698      -4.9247736      -24.093570
H       2.43946671      -5.6822896      -24.075426
H       2.21254754      -4.3131518      -24.740655
O       3.82356668      -2.5675718      -19.476707
H       4.23845911      -1.8104289      -19.908371
H       3.23920727      -2.9602589      -20.140092
O       5.20549107      -0.6712753      -21.130306
H       5.21172428      0.27954418      -21.208473
H       4.82153749      -1.0157927      -21.953559
O       7.30507469      -2.6423735      -20.813131
H       6.70625496      -1.8848574      -20.831275
H       6.93317413      -3.2539951      -20.166044
O       3.38493657      -3.1179814      -25.766132
H       3.25843143      -2.8634734      -26.676046
H       4.09549332      -3.7843489      -25.755775
O       4.10108566      -2.0231986      -23.274473
H       3.82736349      -2.2051844      -24.181837
H       3.57299995      -2.6099979      -22.711841
O       5.76078510      -4.4491653      -19.140569
H       5.88729000      -4.7036738      -18.230653
H       5.05022812      -3.7827982      -19.150926