15
 Ord_Energy   -35.0975571
O       -8.8428812      -4.0616617      -20.088758
H       -9.3057222      -4.8380923      -20.450838
H       -9.3011503      -3.2977283      -20.426191
O       -7.6475758      -5.6544776      -18.234392
H       -8.0208387      -4.9922890      -18.844581
H       -7.0455293      -5.1905727      -17.659206
O       -9.9340572      -6.4763875      -20.785129
H       -9.0982122      -6.9539928      -20.878173
H       -10.261132      -6.7179832      -19.907238
O       -7.2924008      -7.4739384      -20.449344
H       -7.2850389      -6.9307308      -19.648504
H       -6.4930086      -7.2477464      -20.920936
O       -10.215617      -6.9289131      -18.006055
H       -10.612636      -6.8687739      -17.140430
H       -9.3332815      -6.5403327      -17.920568