60
 Ord_Energy   -214.8330080
O       -5.0168891      -0.4160642      -0.2030851
H       -4.6538291      -0.3814420      -1.0952369
H       -4.2918090      -0.1773255      0.39198819
O       -5.9253177      2.76564097      2.56202602
H       -5.2743425      2.28822041      3.08861756
H       -6.3632807      2.11412168      1.99950933
O       -3.0118122      0.62285691      1.42166996
H       -2.0646381      0.48979160      1.28464997
H       -3.1540226      0.89735711      2.33660650
O       -2.4005882      6.31762457      0.56351936
H       -3.2701735      5.96552086      0.78396398
H       -2.3248224      6.29944849      -0.3987680
O       -4.6875667      5.25759649      -2.7098426
H       -4.7498126      4.29872799      -2.8194038
H       -5.3692507      5.49497938      -2.0704937
O       -0.5315061      5.29303789      2.23116899
H       0.01639265      5.98966646      2.58320069
H       -1.1455447      5.71145391      1.60023344
O       -1.2596423      3.53231478      -1.5837293
H       -1.4157888      4.41015291      -1.9471366
H       -2.0368492      3.33471084      -1.0357224
O       -4.8866324      2.46998739      -2.4709112
H       -4.5991511      1.60167432      -2.7720346
H       -4.4313774      2.61047697      -1.6250745
O       -3.7673845      -0.1030512      -2.7706406
H       -2.8708226      0.16444536      -2.4995107
H       -3.6615192      -0.7388886      -3.4728932
O       -1.3196907      0.74340713      -1.9480317
H       -1.2201638      1.70317209      -2.0120866
H       -0.9457549      0.50229740      -1.0932602
O       -4.8225021      4.92945957      1.37078393
H       -5.4485626      5.27850342      0.72270173
H       -5.2867536      4.21297503      1.83764279
O       -3.6178717      1.69544184      3.92457724
H       -3.2851665      2.60567713      3.81802249
H       -3.5533709      1.48437321      4.85174036
O       -6.6429033      5.60244226      -0.6353153
H       -7.4128089      6.16388845      -0.6605491
H       -6.9530415      4.68925381      -0.7837921
O       -7.2638359      3.02825665      -1.1113712
H       -6.5458045      2.75881410      -1.7013937
H       -7.3309931      2.33090425      -0.4487934
O       -2.1761472      6.11896133      -2.2658886
H       -1.9337385      6.78343964      -2.9046342
H       -3.0846221      5.83923340      -2.4816446
O       0.28934845      3.05144954      0.68798602
H       -0.1142708      3.29223609      -0.1581409
H       0.08166329      3.77477860      1.29024971
O       -7.1409301      0.92360663      0.79000068
H       -6.4054083      0.41447383      0.40424624
H       -7.8335714      0.29819122      0.98540050
O       -3.5064332      2.90768313      -0.1173772
H       -3.9366176      3.58177328      0.41977304
H       -3.3661630      2.12745118      0.43434092
O       -2.8616240      4.23969126      3.43741226
H       -3.5180635      4.64453220      2.85969472
H       -2.0037012      4.55060339      3.12275004
O       -0.3137529      0.42984986      0.75669879
H       -0.0402398      1.36505198      0.79462814
H       0.44741067      -0.0901012      0.99861735