66
 Ord_Energy   -238.8797729
O       -3.4943025      -2.2892838      4.19156906
H       -4.2214354      -1.6511451      4.19650783
H       -2.6931993      -1.7728492      4.33862763
O       -6.8520978      1.73246778      7.73390466
H       -6.3845935      1.77521260      8.57700008
H       -6.4712529      2.42044761      7.17332121
O       -1.2294810      -1.1199124      9.45655251
H       -0.6294272      -1.5172128      10.0840215
H       -1.2969810      -1.7403448      8.70942254
O       -4.2482038      6.01485154      5.35109834
H       -3.2926994      5.84314252      5.43639905
H       -4.3800577      6.93744910      5.55154776
O       -5.2181907      1.80721872      10.1034996
H       -5.4288933      2.09374642      10.9877079
H       -4.7695593      0.94569653      10.1846101
O       -1.3034320      4.36093330      2.74476058
H       -2.2580505      4.52868053      2.64735176
H       -0.8845795      4.67273199      1.94749094
O       -4.0046302      4.71292709      2.78139296
H       -4.2888966      3.81916137      3.02010410
H       -4.2042005      5.26074218      3.55022617
O       -1.6006639      5.41210840      5.41622739
H       -1.3185395      4.68765277      5.99146019
H       -1.3468728      5.15417894      4.52202891
O       -1.4244703      -0.5806092      5.28494687
H       -1.3320799      0.21041969      4.73769356
H       -2.1577841      -0.3778142      5.89235503
O       -1.1161596      3.04596584      6.83069260
H       -0.5636864      2.31358414      7.13768878
H       -1.9387656      2.98806749      7.33803072
O       -3.9449963      -0.5663665      10.1292507
H       -4.4188206      -1.1748381      9.54534543
H       -3.0048849      -0.7009625      9.95679737
O       -1.4196873      -2.6918437      7.23331696
H       -2.2137506      -3.1937273      7.01423440
H       -1.2438157      -2.1294185      6.46921992
O       -3.5725953      0.11498027      6.82566186
H       -4.0119306      -0.5355231      7.38743079
H       -3.5378191      0.95332504      7.30117929
O       -5.3644830      -0.2742831      4.74886980
H       -6.1817370      -0.4708995      5.21996679
H       -4.7167843      -0.0747935      5.44494218
O       -3.8957108      -3.8470798      6.37666045
H       -4.0429178      -4.7613009      6.14958128
H       -3.7834661      -3.3619385      5.53948922
O       -1.6118075      2.01447383      4.27336369
H       -1.4504442      2.37552409      5.15803671
H       -1.3807128      2.71432937      3.65024719
O       -3.5510301      2.65294869      8.03315301
H       -4.1757925      3.03774016      7.40050596
H       -4.0394303      2.48069450      8.84686308
O       -7.3450022      -0.7205359      6.72227977
H       -8.2824671      -0.8923161      6.73233579
H       -7.2190999      0.17398250      7.09013193
O       -4.4038515      2.17332424      3.90563141
H       -3.4539197      2.04207196      4.03587827
H       -4.8304248      1.31184603      3.99544380
O       -5.3418644      3.55693061      6.13841632
H       -5.0759002      3.04663668      5.35988858
H       -5.0968750      4.47225256      5.95159729
O       0.03207206      0.64547694      7.53391771
H       -0.3647691      0.16365716      8.26958735
H       -0.2298427      0.16294202      6.74209759
O       -5.1282465      -1.9228044      8.01912587
H       -5.9476345      -1.6223883      7.60495644
H       -4.7844774      -2.6582288      7.49555367