24
 Ord_Energy   -70.8874054
O       1.88508117      3.35372472      0.81357056
H       1.50645554      3.38850570      -0.0784486
H       2.10707474      2.42810130      0.96357685
O       -1.8834115      0.70265156      0.23198329
H       -2.0512642      1.64126301      0.07853876
H       -1.1613849      0.46893930      -0.3644241
O       -1.9608118      3.56644177      0.00788698
H       -2.6695404      4.20329714      -0.0412960
H       -1.4695773      3.75764871      0.82295519
O       1.94761014      0.47865140      1.21297503
H       1.15347421      0.62784690      1.75894701
H       2.55261374      -0.0350937      1.74061155
O       0.58026987      0.27939856      -1.2174083
H       0.90669334      -0.4306294      -1.7647726
H       1.12586462      0.28663936      -0.4146121
O       -0.3490684      1.05034053      2.52788830
H       -0.9866533      0.82105815      1.83421671
H       -0.4103810      2.00671816      2.62860823
O       -0.3335482      3.94035244      2.25027132
H       0.51033741      3.80067897      1.78192878
H       -0.1723083      4.60075569      2.91827822
O       0.43313160      3.12984109      -1.5503233
H       -0.4348489      3.33561778      -1.1816619
H       0.46983644      2.16612792      -1.6015213