84
 Ord_Energy   -313.3589555
O       1.81046119      4.73255499      4.10134907
H       0.88445601      4.55199530      4.30846705
H       2.33455695      4.32076687      4.79852828
O       -1.7435249      2.77993312      2.07175878
H       -0.9608854      2.62487787      1.52687832
H       -1.4484612      3.25066174      2.86133897
O       2.73824239      -0.8006917      3.90319251
H       2.38566438      -1.3235051      4.63252407
H       1.96505199      -0.5520385      3.37078906
O       1.82807939      -3.3705822      1.31748199
H       2.61590926      -2.8142886      1.27022041
H       1.19409607      -2.9835813      0.70305265
O       1.29835943      -2.3481020      5.69662008
H       0.37905018      -2.0725550      5.81800926
H       1.27749281      -3.1064046      5.09886705
O       -3.3495584      0.68987744      2.55273744
H       -4.2189158      0.87783683      2.20867385
H       -2.7900416      1.46126036      2.34387425
O       3.62228617      3.21747236      5.81069956
H       4.39926639      3.65642581      6.14969536
H       3.92727042      2.61687752      5.11083114
O       -1.5874859      -3.2226959      3.79996039
H       -1.6419602      -2.8328146      4.68197623
H       -0.7529468      -3.7068386      3.77185998
O       4.26280015      1.48036430      3.74692405
H       3.73677998      0.68379151      3.91465931
H       4.93226160      1.23539581      3.09684995
O       2.07636472      -0.0357824      -0.4103369
H       2.66511094      -0.4687737      0.22441808
H       1.35229070      -0.6579280      -0.5512976
O       -0.8539709      -1.0232843      8.89104793
H       -0.9965127      -1.4363373      9.73834197
H       0.10549878      -1.0555261      8.72054709
O       5.83261150      0.65593766      1.51724537
H       6.74530940      0.70930815      1.24747102
H       5.31551497      1.16559070      0.86709885
O       0.65576991      2.04988357      0.79916362
H       1.36605145      2.55647005      1.22211771
H       1.08525633      1.40387348      0.22258292
O       1.70897045      1.59231317      7.12427024
H       2.39794017      2.18624255      6.80851822
H       1.15820651      1.38250420      6.35251765
O       4.13724748      1.98733559      -0.1251542
H       3.45759048      1.38814514      -0.4559155
H       3.69082809      2.59219793      0.48362127
O       2.80014425      3.22544661      2.04482977
H       2.44536218      3.89475650      2.64825975
H       3.27707432      2.59843892      2.60338991
O       1.74654909      -1.0201221      8.14549321
H       1.76977373      -1.5705184      7.35174685
H       1.87959592      -0.1093573      7.84606870
O       -2.6834798      0.53365974      5.29464191
H       -2.8572762      1.38015665      5.72663888
H       -2.9861175      0.59276652      4.37937525
O       -0.0362274      -1.9757886      -0.3870380
H       -0.5028752      -2.3822497      -1.1136225
H       -0.6978166      -1.7964884      0.30189040
O       -0.8063938      3.74585296      4.58185968
H       -1.4907238      3.75935387      5.25951361
H       -0.3878984      2.87622919      4.67919980
O       0.50066406      -0.0310200      2.60852316
H       0.54128113      0.70278646      1.98155558
H       -0.2413667      -0.5912649      2.35400784
O       -1.4435251      -1.7607506      6.22451825
H       -1.9704865      -1.0125628      5.90971104
H       -1.3330404      -1.6211324      7.17324758
O       -2.6681645      3.00589184      6.65811568
H       -2.0296472      2.62037567      7.28669584
H       -3.2944228      3.50387783      7.17634870
O       3.81248873      -1.3576348      1.42662319
H       4.61963552      -0.8331456      1.38121561
H       3.49432379      -1.2631156      2.33753182
O       -0.8693205      1.78849209      8.27349597
H       0.05561934      1.86553945      8.00410613
H       -0.9829937      0.87131998      8.54935083
O       1.03372136      -4.3496679      3.72636128
H       1.33589474      -4.0112179      2.86528795
H       1.26027002      -5.2758250      3.74980666
O       -1.7114206      -1.4660766      1.73772614
H       -1.7471585      -2.1380514      2.43797780
H       -2.3481699      -0.7746769      1.95496884
O       0.04144958      1.15616771      5.00812035
H       -0.8637907      0.89486643      5.21891359
H       0.24984046      0.73935378      4.16245267