63
 Ord_Energy   -227.2700077
O       -3.2029647      3.04474318      0.41508384
H       -4.1277646      3.00617642      0.71978403
H       -3.2298418      3.33227264      -0.4938400
O       -3.7916637      -1.5405440      2.03321868
H       -3.8457914      -2.2211624      1.36805879
H       -3.2100971      -0.8442998      1.67714044
O       -2.2194942      0.49237184      1.21576725
H       -2.5531165      1.33165651      0.87707606
H       -1.7524898      0.70380505      2.03669226
O       -5.7476602      2.84769578      1.30253110
H       -6.1937233      3.46073579      1.89819706
H       -5.8103985      1.97830226      1.72273847
O       -0.9256999      3.79194378      6.80999644
H       -0.3029152      4.32147955      7.30403736
H       -0.6102336      3.77866208      5.89304524
O       -5.7624325      3.32560705      7.81149512
H       -6.0975743      3.70386559      8.61968563
H       -5.0171522      3.88463272      7.52481682
O       -5.6017550      0.49837141      2.78787808
H       -5.1150428      -0.2674919      2.46384366
H       -4.9946128      0.97352914      3.37711890
O       -5.5514767      -1.3488874      6.50046081
H       -5.7791867      -2.1473572      6.96857167
H       -4.8288607      -1.5787337      5.88813639
O       -4.2966145      1.05983567      7.11384936
H       -4.8066434      0.24584083      7.01338899
H       -4.8843222      1.75745128      7.43077612
O       -4.2346150      4.53965421      4.15826712
H       -5.1311687      4.68858702      3.83570110
H       -4.1255500      3.57782803      4.23522009
O       -6.8955627      4.54629888      3.29050823
H       -7.6079014      5.17116162      3.19097071
H       -7.1199432      3.98613930      4.05731332
O       -3.8106607      1.82393109      4.45040685
H       -3.9583601      1.55232025      5.36565951
H       -2.9151695      1.56440363      4.20064415
O       -1.1821798      1.09974945      3.71623335
H       -0.6746484      1.89511464      3.91426560
H       -0.9544627      0.41786283      4.36160329
O       -1.5585318      1.06817586      7.42848119
H       -1.3072173      1.98665096      7.28060649
H       -2.5273798      1.05340811      7.43498312
O       -1.9882480      4.47489725      2.54832332
H       -2.7704004      4.65813513      3.08846383
H       -2.3144284      4.00503053      1.77149897
O       -7.3725911      3.01521363      5.44387579
H       -6.8869735      3.14540688      6.26480591
H       -7.4445816      2.05799858      5.31293547
O       -3.6590422      4.73145195      6.86118032
H       -2.7472468      4.42459698      6.90448823
H       -3.8659279      4.81189726      5.91826441
O       -0.8925948      -0.8526566      5.67526042
H       -0.2121699      -1.4241003      6.01987091
H       -1.0962206      -0.2004485      6.37129155
O       -0.0364024      3.64924006      4.17031064
H       0.80496236      3.90855131      3.80461294
H       -0.7226120      3.98984502      3.56479161
O       -3.4695089      -1.8602737      4.84765933
H       -2.5846010      -1.5687289      5.09432968
H       -3.5356823      -1.7863331      3.88749309
O       -7.3483452      0.29315720      4.96319616
H       -6.8745380      0.30326417      4.11952487
H       -6.8521060      -0.3144823      5.52241676