45
 Ord_Energy   -152.7666320
O       -2.8914203      -1.3510892      -4.8063426
H       -2.1133565      -0.9415572      -4.3870434
H       -3.2497546      -0.7068333      -5.4105253
O       -2.6949448      -2.3306744      -0.4010616
H       -3.2911274      -2.4148299      -1.1590668
H       -1.9942851      -1.7083472      -0.6415255
O       -1.3741864      -3.7449369      -5.0935673
H       -1.8010520      -4.3796439      -4.5046639
H       -1.9578521      -2.9755632      -5.1247687
O       -4.0740757      -2.8549840      -2.7130851
H       -3.7705545      -2.2914962      -3.4368598
H       -3.7613174      -3.7424960      -2.9238195
O       0.93322498      -3.1995492      -1.5842895
H       0.17988613      -3.7908897      -1.4500012
H       1.05667043      -3.0968573      -2.5362818
O       2.07030296      -3.7654833      0.91587943
H       1.83480453      -3.5714604      -0.0016415
H       1.33199251      -4.2745623      1.27134120
O       -0.6107801      -0.4414358      -3.6542737
H       0.05219688      -1.0885268      -3.9242310
H       -0.5610721      -0.4007040      -2.6897113
O       -1.5569142      -2.6002328      2.14363694
H       -0.9940149      -1.8171417      2.15893054
H       -2.1327061      -2.4913802      1.37361205
O       2.55271959      -1.4437481      2.24125481
H       2.44581819      -2.3003032      1.79167795
H       3.47818875      -1.3703787      2.45530081
O       -1.3351571      -4.7031693      -0.8482449
H       -1.0069901      -4.9987144      0.00972710
H       -1.8535996      -3.9001390      -0.6802614
O       -0.3804546      -0.8241147      -0.8853947
H       -0.1717211      -0.5349986      0.01095132
H       0.16262554      -1.6061198      -1.0643585
O       -0.3684054      -5.0059571      1.77530897
H       -0.7918488      -4.1549739      1.99356544
H       -0.5247736      -5.5883441      2.51343441
O       -2.6712865      -5.3627553      -3.1549587
H       -2.1680181      -5.2414588      -2.3324420
H       -3.0126204      -6.2533235      -3.1390342
O       0.13647570      -0.2945027      1.84288764
H       0.05759122      0.50990856      2.34885859
H       1.02455056      -0.6526038      2.01841617
O       1.01623309      -2.7286195      -4.3390698
H       0.19842610      -3.1526382      -4.6566171
H       1.66888142      -2.8371486      -5.0252213