45
 Ord_Energy   -154.0069120
O       2.67254567      9.81399727      7.39798450
H       2.30903053      10.3861856      8.08341408
H       3.63643551      9.88098812      7.47322464
O       4.72799969      11.2436705      10.0364895
H       5.12232256      10.6348581      10.6720343
H       5.07474661      10.9859324      9.17133617
O       6.79081631      6.66955423      6.69546223
H       6.56412458      7.38238716      6.08581161
H       6.85868502      7.07909870      7.56677055
O       1.60934210      8.61995888      10.8059349
H       1.52684367      8.09737587      9.99700737
H       1.66228819      9.54190540      10.5241308
O       3.21952605      8.33608818      5.03151608
H       2.86020684      8.92455578      5.70795250
H       2.91417074      7.44914961      5.25991917
O       5.88376713      8.87263393      5.07265854
H       6.19530439      9.14483261      4.21391249
H       4.94124889      8.64845848      4.97231388
O       6.28434420      7.89042616      9.25076103
H       5.55214739      7.26337624      9.34766483
H       6.35415792      8.33698750      10.1017570
O       2.37478423      5.78496838      5.99845695
H       3.20510554      5.43867970      6.37462091
H       1.95397866      5.06049728      5.54439068
O       4.64198923      4.98383760      7.21826220
H       4.53128719      5.16495609      8.15866852
H       5.43333626      5.47286987      6.94752502
O       5.82144165      9.20128536      11.7445259
H       5.06592989      8.64184189      11.9867353
H       6.34747791      9.31217575      12.5330353
O       1.94443965      7.30562305      8.33120728
H       2.19615579      8.17825699      7.99350786
H       1.91183531      6.72241020      7.56328726
O       4.10059738      6.23519230      9.74222469
H       3.34716558      6.59819841      9.25191402
H       3.96929908      6.49024677      10.6612682
O       2.02947903      11.2347879      9.76995277
H       2.98932052      11.3070612      9.92218208
H       1.65587425      12.0945568      9.94267750
O       3.62096763      7.57376146      12.2576303
H       3.26373935      7.14867258      13.0327768
H       2.86889338      7.98154831      11.7893419
O       5.44627714      9.97216415      7.62142038
H       5.69967318      9.75584030      6.71572828
H       5.75009251      9.23307991      8.16937542