84
 Ord_Energy   -313.7390282
O       -0.1765930      0.77372318      -4.1563149
H       -0.4545164      1.12111958      -4.9999898
H       -0.2279248      1.50594501      -3.5185001
O       -0.2253181      2.74420723      -2.2650840
H       -1.0276031      3.12352637      -1.8882447
H       0.29833686      2.42171558      -1.5152999
O       2.48538438      -0.1544481      -3.5688419
H       1.62575844      0.15818788      -3.8745247
H       2.34211932      -1.0517420      -3.2418311
O       3.66068449      1.61733390      -1.8674209
H       3.32873095      0.99109495      -2.5312873
H       3.40817945      2.50907784      -2.1463840
O       1.79418515      -2.5656706      -2.2517651
H       1.60262316      -3.5067241      -2.1662804
H       2.19027419      -2.2977478      -1.4095693
O       2.13847994      5.48408357      0.08349680
H       2.64456454      6.25714636      0.32263101
H       2.31028998      4.81577578      0.76959073
O       -0.7740720      -1.4907011      -2.5916118
H       0.11908888      -1.8385567      -2.4542717
H       -0.6866327      -0.7531129      -3.2066611
O       2.40356391      4.04450484      -2.4086384
H       2.36110983      4.59753924      -1.6180634
H       1.49625995      3.75519544      -2.5606382
O       0.90049605      -5.1801721      -1.5597360
H       0.96745335      -6.0552096      -1.9317921
H       -0.0226983      -4.8924015      -1.6788391
O       1.43192909      1.87176836      -0.2480131
H       2.20208911      1.73661397      -0.8171189
H       1.70908003      2.45633721      0.46830512
O       -1.5851885      -4.1032622      -1.7406547
H       -1.4895184      -3.2419426      -2.1670019
H       -1.7853453      -3.9191989      -0.8126772
O       4.73010691      0.15180286      0.20630739
H       5.67812305      0.07550567      0.12536035
H       4.43332573      0.70510402      -0.5356233
O       -2.3954194      3.79504914      -0.7971650
H       -3.1636901      4.31791223      -1.0103439
H       -1.8054469      4.36309428      -0.2680666
O       2.74927544      -1.8613955      0.24569186
H       3.51939781      -1.2826226      0.25349222
H       1.99527079      -1.3228472      0.53478664
O       -0.6523694      5.14828399      0.75681250
H       0.24388135      5.35940440      0.47041200
H       -0.5666027      4.58413155      1.53678452
O       -1.8448153      -0.8003903      -0.1425821
H       -1.5270517      -0.9500484      -1.0441936
H       -1.9095906      -1.6713148      0.27338391
O       0.63077176      -0.3395141      1.02747446
H       0.89310943      0.47944546      0.58044296
H       -0.2411976      -0.5702932      0.69082654
O       2.26021409      3.45499859      1.89388351
H       1.37347547      3.34169467      2.26573831
H       2.81649434      2.73679917      2.23201543
O       1.14611985      -4.0129708      1.04400454
H       1.12385264      -4.5699319      0.25611546
H       1.80631037      -3.3303552      0.85865395
O       -2.2239258      1.64303648      1.08602573
H       -2.4218265      2.32863913      0.43792365
H       -2.1481281      0.81154318      0.59460092
O       3.59834332      1.21486334      2.65281194
H       3.01576020      0.55985215      3.05801323
H       4.01156619      0.79596020      1.88895368
O       -0.3619442      3.04578283      2.65551289
H       -0.3104502      2.58302390      3.50080998
H       -0.9465121      2.51850142      2.09193168
O       -1.5932426      -3.3143001      0.97760524
H       -0.6478701      -3.5180109      1.01620268
H       -1.8809615      -3.1814194      1.88963352
O       1.49109456      -0.4609208      3.61089192
H       1.36713737      -1.3967041      3.82111020
H       1.13406383      -0.3557131      2.71486031
O       -2.1112100      -2.6479417      3.63302057
H       -2.7647721      -2.9575975      4.25466152
H       -2.2110897      -1.6809785      3.58111000
O       -0.1471698      1.32337142      4.85574412
H       0.06168199      1.42253551      5.78059734
H       0.48960233      0.68557795      4.48772985
O       -2.3173035      0.05706537      3.49381194
H       -1.6613826      0.50329818      4.04339409
H       -2.4407281      0.61478389      2.71701622
O       0.74373306      -3.1091464      3.77774362
H       0.93881998      -3.5668272      2.95120936
H       -0.2165406      -3.0132639      3.80735944