33
 Ord_Energy   -104.2774120
O       -7.3769278      2.57920241      12.2939701
H       -7.5310006      2.90625477      11.3931875
H       -7.9701895      1.84269190      12.4235411
O       -6.4738488      5.87766504      10.4603691
H       -6.5933036      6.41848993      11.2496681
H       -5.5731658      5.52869368      10.5198755
O       -4.5646266      2.38689446      12.5036592
H       -5.5288987      2.39226317      12.4408674
H       -4.2497530      1.71931326      11.8771772
O       -3.9680957      4.65797853      10.8491020
H       -4.1318674      3.86899352      11.3826466
H       -3.7188170      5.34479713      11.4842119
O       -4.9699063      2.81289721      8.95034122
H       -5.9065170      2.99247169      9.08753490
H       -4.5024204      3.53810549      9.38773251
O       -3.7371988      6.37945938      13.0047665
H       -4.6097188      6.79248714      13.0152912
H       -3.7776863      5.67516613      13.6639137
O       -6.5312185      7.14237595      12.9939938
H       -6.7334265      6.30986929      13.4569874
H       -7.0011115      7.83377886      13.4519138
O       -4.1516995      4.03031635      14.6512556
H       -4.1899004      3.37833500      13.9302359
H       -3.6256692      3.64156461      15.3452091
O       -6.8815403      4.71368885      14.1768284
H       -7.1499223      4.01169729      13.5722923
H       -5.9960284      4.47788858      14.4835310
O       -7.6762642      3.60605311      9.74161243
H       -8.3525247      3.73690963      9.08292198
H       -7.3182120      4.48810196      9.95909309
O       -3.9187550      0.73631775      10.4176044
H       -3.2114090      0.29719517      9.95292091
H       -4.2885079      1.38419271      9.79339314