90
 Ord_Energy   -338.4296695
O       1.18297973      1.88102394      -5.4963519
H       1.81471674      1.19936414      -5.2377020
H       1.44706794      2.66496644      -4.9990874
O       -0.1040110      4.64617868      -2.3652141
H       -0.0521265      4.99034275      -1.4656356
H       -0.6825074      3.87334293      -2.3255293
O       -0.5373711      0.37901578      -3.8819998
H       -0.9407619      0.98792417      -3.2474161
H       -0.1771521      0.92551473      -4.5940174
O       2.24305713      -0.1254629      -3.7192857
H       2.38459906      -1.0436642      -3.4583569
H       1.28652190      0.02271510      -3.6807305
O       2.12020815      4.02689104      -3.7704549
H       2.46009900      4.81298374      -4.1899191
H       1.31891645      4.29290779      -3.2846818
O       3.14409180      1.94699575      -2.1998801
H       2.91280158      1.17813902      -2.7457130
H       2.92463151      2.73229247      -2.7173966
O       2.29021910      -2.6133338      -2.5042007
H       2.33545319      -3.5695928      -2.3926088
H       2.65564820      -2.2284775      -1.6936441
O       -0.5086950      -2.1333316      -2.6436346
H       0.44654898      -2.2794515      -2.5998607
H       -0.6462748      -1.3421782      -3.1811441
O       -1.4259622      2.17089455      -1.9614121
H       -0.6534414      2.05053471      -1.3868252
H       -2.2097964      2.18585071      -1.4009726
O       0.08423090      5.50565829      0.36784015
H       0.34701987      6.37207751      0.66980567
H       0.61350348      4.86340858      0.87064983
O       2.11821053      -5.3357822      -1.7336887
H       2.35836401      -6.1765660      -2.1130196
H       1.14734404      -5.2690158      -1.7855126
O       0.90810000      1.90027492      -0.5324994
H       1.06995836      2.49914275      0.20841464
H       1.67199799      1.94593286      -1.1210966
O       -0.5529592      -4.8642197      -1.7350125
H       -0.7120234      -4.7208630      -0.7919540
H       -0.7316119      -4.0198075      -2.1675202
O       4.64268465      0.86825142      -0.1490653
H       4.17755329      1.30967026      -0.8790038
H       5.57332578      1.03912256      -0.2753478
O       -3.6039101      2.35463369      -0.1599134
H       -4.5043298      2.60335436      -0.3507935
H       -3.2088152      3.08395418      0.35165014
O       3.19340839      -1.5680723      -0.1063680
H       3.82709932      -0.8431516      -0.1016983
H       2.35710276      -1.1969951      0.21783595
O       -2.2882871      4.18791024      1.32844470
H       -1.5815152      4.73382825      0.96542775
H       -1.8736167      3.61784250      1.99054346
O       -1.4401725      -1.7219018      -0.0742444
H       -1.2276471      -2.5710346      0.33840812
H       -1.2105376      -1.8005642      -1.0104691
O       0.86757412      -0.4744962      0.78375708
H       0.06546492      -0.9421998      0.52426515
H       0.86168692      0.37836862      0.32712649
O       1.29436527      3.45720293      1.72052595
H       0.53938414      3.03702182      2.15940569
H       2.08790008      2.96253417      1.97492203
O       2.31679475      -4.0586176      0.81765209
H       2.36611427      -4.6210906      0.03489374
H       2.74142723      -3.2246580      0.57172763
O       -2.4867815      0.31801245      1.44894881
H       -3.0037730      0.92938319      0.91123639
H       -2.1976358      -0.3956157      0.86144215
O       3.33893517      1.74427264      2.28561311
H       2.99020108      0.96346792      2.73529905
H       3.82873165      1.42615179      1.51876871
O       -0.9189002      2.20437044      2.79823405
H       -0.6586346      1.79489382      3.63219855
H       -1.3877851      1.52423234      2.29345493
O       -0.5013645      -4.0872201      0.98631010
H       0.46458879      -4.0464956      0.94485091
H       -0.7351678      -4.0770878      1.92292329
O       1.87932390      -0.4666943      3.33293839
H       2.01667265      -1.4077238      3.51233385
H       1.45336622      -0.4255549      2.46296308
O       -0.9254232      -3.7286381      3.71846333
H       -1.3020935      -2.8311216      3.75015830
H       -1.3886509      -4.2442692      4.37317263
O       -0.0222562      0.63989945      4.93205810
H       0.29139533      0.77331610      5.82220699
H       0.71326562      0.25073958      4.42620317
O       -1.8898262      -1.2005242      3.78712917
H       -1.3297413      -0.5865667      4.27720613
H       -2.2383751      -0.7062479      3.03512708
O       1.90936707      -3.2094523      3.54484454
H       0.98284321      -3.4394934      3.68883871
H       2.15972687      -3.6284539      2.71251468