72
 Ord_Energy   -263.7512327
O       -6.6821369      -3.5451697      5.35213313
H       -7.4787280      -3.0029797      5.32082893
H       -5.9805757      -3.0032236      5.73357636
O       -6.3359285      -4.5838265      2.87962471
H       -6.1130321      -5.5103501      2.89449274
H       -6.4244725      -4.2975540      3.80727702
O       -5.3594204      1.38520893      0.67818969
H       -6.2539384      1.51480461      1.03210227
H       -5.3884103      0.55459476      0.19120727
O       -6.3244439      0.18723767      6.09921677
H       -6.5147350      0.02497938      5.15997859
H       -5.6768211      -0.4799620      6.35750277
O       -6.5814063      5.55269360      2.40667336
H       -6.8676575      6.35057251      1.97030584
H       -6.0260701      5.06854086      1.76948980
O       -10.204886      0.60588805      0.77551747
H       -10.510371      0.32993251      1.65983488
H       -10.972178      0.91088767      0.30022420
O       -8.9745248      -1.8396970      4.75050890
H       -9.1372030      -1.3032463      5.53624424
H       -8.3117063      -1.3539772      4.22987108
O       -3.4864823      -1.0308342      4.01595607
H       -3.9597757      -1.4992757      3.31391551
H       -3.4635465      -0.1074882      3.73453483
O       -4.8733957      4.17246859      0.79062438
H       -4.0247404      4.19954838      1.24979275
H       -5.0302154      3.24174055      0.58541540
O       -8.8380342      -3.3349148      2.26637405
H       -9.0624139      -2.9833338      3.13473306
H       -8.0464511      -3.8705900      2.40111911
O       -5.8141081      -1.1902638      -0.4307850
H       -6.7679526      -1.2983030      -0.2523839
H       -5.6569625      -1.5313816      -1.3066238
O       -3.7869320      1.57669964      2.98662188
H       -3.2411965      2.35941861      2.84049925
H       -4.3049552      1.44355011      2.17996861
O       -6.9788703      -0.4351190      3.50015740
H       -7.3045119      0.23740904      2.88895529
H       -6.3678645      -1.0081797      3.02032437
O       -4.5292478      -1.9139856      6.32995982
H       -4.0895184      -1.6081167      5.51426009
H       -3.8423805      -2.2131689      6.91888584
O       -2.6246468      4.11499454      2.57499779
H       -3.1926983      4.54766503      3.23780066
H       -1.7706129      4.53483577      2.62503830
O       -9.9861677      1.98541888      4.93071501
H       -9.2884853      2.58721956      4.64264875
H       -9.6290042      1.46862994      5.66237034
O       -10.830235      -0.0579817      3.29454698
H       -10.630046      0.71755987      3.84272958
H       -10.407360      -0.8006985      3.73287701
O       -5.2007234      -2.1341652      2.13137142
H       -5.5443062      -3.0262060      2.26948104
H       -5.3312155      -1.8974656      1.20462778
O       -8.3959296      -1.5282476      0.19550452
H       -8.5949866      -2.1848032      0.87856296
H       -9.0533659      -0.8305639      0.28869566
O       -8.9481577      0.08435057      6.85254407
H       -7.9895295      0.16264166      6.70941680
H       -9.0919438      0.10527107      7.79526066
O       -4.4596137      5.12633333      4.31125431
H       -4.7813046      4.32596095      4.74917382
H       -5.1912029      5.43128773      3.76034029
O       -5.4436278      2.57985164      4.99967416
H       -5.6862915      1.84681190      5.57746317
H       -4.8898773      2.20252935      4.30008246
O       -7.8195943      1.60768267      1.81407221
H       -7.9435598      2.29883681      2.47808850
H       -8.6730320      1.38032323      1.42560452
O       -7.8148832      3.48105853      3.84802215
H       -7.0219533      3.15909165      4.30129355
H       -7.5439228      4.27794759      3.37463387