72
 Ord_Energy   -263.7864247
O       19.8431405      10.8936930      -10.510036
H       19.4316193      10.9338984      -9.6382393
H       20.7909883      11.0510477      -10.406299
O       18.5905127      6.77878677      -9.4131746
H       17.9990378      6.17996076      -9.8886210
H       19.0896005      7.27184063      -10.088739
O       19.2769176      3.80692439      -11.819455
H       19.0643989      2.90481030      -12.047882
H       18.4381652      4.24142011      -11.596113
O       20.8599467      5.47741483      -13.566020
H       20.3340398      4.87276304      -13.030423
H       20.2489217      6.15925385      -13.878418
O       22.5865542      8.73594610      -8.8583659
H       22.8808164      7.84976318      -9.0940316
H       21.7674027      8.62684093      -8.3540283
O       17.0148005      5.24948969      -11.116899
H       16.1206327      5.06580981      -10.804895
H       16.9275748      5.90304706      -11.828338
O       22.4121879      7.26193050      -12.170824
H       21.9863712      6.56654630      -12.695552
H       22.8203049      6.84366819      -11.404205
O       20.1253051      8.42580871      -7.5954526
H       19.6047165      9.23786925      -7.6108510
H       19.5822440      7.76303428      -8.0367405
O       14.2341653      7.77996857      -9.3528311
H       13.8306424      8.25634160      -10.089583
H       14.2283110      6.84960093      -9.6071416
O       23.2002815      6.08490253      -9.7418379
H       22.3549852      5.60853121      -9.6616557
H       23.8806303      5.49285905      -9.4331457
O       19.9129304      8.19170243      -11.294396
H       19.9160940      9.12889629      -11.061707
H       20.8216268      7.92473038      -11.490578
O       18.4351299      10.7078805      -8.0727404
H       17.7277706      10.1254196      -8.4001808
H       18.0318403      11.3130034      -7.4558276
O       18.2573180      11.0822235      -12.790129
H       18.8171439      11.1650513      -12.004981
H       18.8542605      10.8465646      -13.509260
O       22.6183025      10.9639950      -10.356198
H       23.2916146      11.5534378      -10.028714
H       22.6650057      10.1540871      -9.8141005
O       19.1810768      7.70762126      -13.943236
H       19.4940982      8.49934138      -14.396293
H       19.3510027      7.87178689      -13.002078
O       20.7597456      4.88996724      -9.6310436
H       20.0617962      5.48994586      -9.3455512
H       20.3834817      4.41081346      -10.379386
O       13.9160504      6.52719807      -12.790890
H       13.6075795      7.40938509      -12.547338
H       14.8232054      6.65215973      -13.102882
O       16.2045324      9.59302786      -11.812380
H       16.8769206      10.1661723      -12.210949
H       16.4575066      9.42256432      -10.896087
O       16.6443835      7.14922790      -13.079370
H       17.4654402      7.26327148      -13.575744
H       16.4765657      7.99945862      -12.647981
O       22.3631690      9.90763978      -13.019567
H       22.5153797      10.3660037      -12.185754
H       22.5095278      8.97004845      -12.827634
O       16.7262322      8.86782868      -9.1354067
H       17.3332256      8.11759036      -9.1730369
H       15.8280657      8.50790658      -9.0806188
O       13.5028790      9.15685174      -11.767333
H       14.4366043      9.41856330      -11.849575
H       12.9823219      9.92449104      -11.988459
O       20.2360709      10.2038055      -14.684541
H       20.5281441      10.6229470      -15.489323
H       21.0174470      10.1372647      -14.106122
O       14.2831494      5.12629767      -10.496246
H       13.6245477      4.45163342      -10.354775
H       14.0724542      5.55427096      -11.346623