84
 Ord_Energy   -313.2190784
O       -1.0681256      5.09110279      1.27799957
H       -1.2626839      5.93231241      0.87380991
H       -0.6041272      5.28089472      2.11464044
O       -2.3645246      0.28785075      0.96700616
H       -2.6392417      1.18625902      1.19011288
H       -1.4546974      0.35975319      0.64957204
O       2.39084339      1.63033055      4.99244928
H       1.97794614      1.05968289      4.32928452
H       3.18559093      1.17714499      5.30187944
O       -0.3091526      -2.0392293      3.85587873
H       -0.3500622      -1.6842012      4.75667278
H       -1.1966474      -2.0250577      3.47850611
O       0.34620059      5.40649662      3.55679174
H       -0.0831666      5.02539002      4.33491334
H       1.20023250      4.96299569      3.47704221
O       -2.8560975      -1.7232935      2.68385266
H       -3.4051790      -2.3797896      2.26419095
H       -2.7015462      -1.0200235      2.02567590
O       5.21422063      0.46170209      3.10428228
H       4.67191512      -0.1945424      2.64742266
H       5.10896584      0.28421511      4.04656031
O       -2.7924095      -0.8763528      7.37278886
H       -2.6481879      0.03009461      7.70463339
H       -3.2514409      -1.3550122      8.05689207
O       3.28185667      -1.1867492      1.89727887
H       2.57765021      -0.6924673      2.33744554
H       3.18433923      -1.0007785      0.95503763
O       2.56407703      3.68323031      3.12765954
H       2.49398744      3.04665298      3.85236666
H       3.44871922      3.56611720      2.75918158
O       2.78272486      -0.2502973      -0.7298260
H       3.11342539      0.66139914      -0.6292411
H       3.04486960      -0.5473516      -1.5968044
O       -2.2042114      1.65330822      8.05135796
H       -1.2689216      1.77547757      7.84403224
H       -2.6797155      2.38171137      7.63279592
O       5.03938290      2.92428805      2.00833855
H       5.90263789      3.32893785      2.01578642
H       5.13768230      2.04329914      2.41323114
O       0.35983194      0.66843800      0.39906181
H       0.54475079      1.61859618      0.46466573
H       1.07963999      0.26876925      -0.1037326
O       -0.9339463      3.93925458      5.55899283
H       -1.0070406      3.17903785      4.95854243
H       -1.8078719      4.06000982      5.94934823
O       3.48358341      2.32302758      -0.2927929
H       4.09871892      2.53475166      0.42053634
H       2.66371590      2.78753718      -0.0803153
O       1.05263861      3.28920249      0.80554018
H       0.32359943      3.91990503      0.81814708
H       1.53207382      3.39985848      1.63983634
O       0.41279005      1.91662701      6.91804647
H       -0.0165835      2.70978085      6.56617844
H       1.21174359      1.82684787      6.38041145
O       -3.2790042      0.07936435      4.76901357
H       -3.1935075      -0.3290762      5.63897565
H       -3.2514690      -0.6180007      4.10126291
O       2.29580095      -3.1822220      3.72363620
H       1.35143700      -2.9897406      3.65364073
H       2.72651996      -2.6895000      3.01441727
O       -2.7342754      2.90189100      2.01079802
H       -2.1317220      2.51323863      2.66441031
H       -2.2881447      3.69059132      1.68167479
O       1.03470650      0.17147677      3.01346435
H       0.60080552      -0.6519762      3.28567303
H       0.78378077      0.35384633      2.09585023
O       2.58985597      -1.7629924      6.09473301
H       1.68212823      -1.5310433      6.31571714
H       2.54854913      -2.3524184      5.32696329
O       -0.1596284      -0.8290706      6.36115348
H       -1.0018924      -1.0036240      6.79886020
H       0.02950180      0.10654148      6.51361672
O       -4.3996373      2.62179160      4.32572685
H       -4.1828477      1.69083399      4.47468234
H       -4.0125999      2.84550196      3.47029506
O       -3.5246032      3.76632059      6.62619700
H       -4.1611487      4.39080055      6.96341472
H       -3.8987968      3.39740625      5.80617213
O       4.53906396      0.05985986      5.83435832
H       3.88036669      -0.6478397      5.96458224
H       5.09492382      0.06343460      6.60849228
O       -1.1626317      1.71971705      3.95682320
H       -0.4092008      1.19598689      3.66881730
H       -1.8318608      1.11469816      4.30731878