24
 Ord_Energy   -69.1362076
O       -14.154698      21.9485111      4.29170418
H       -15.045728      21.7736473      4.00215769
H       -13.579834      21.3745708      3.75637102
O       -10.999648      23.0041790      2.33441234
H       -10.059408      22.9721699      2.54802966
H       -11.418329      23.4332733      3.09138727
O       -12.265552      20.5593262      2.87403011
H       -11.697800      20.1657124      3.54705334
H       -11.804933      21.3535480      2.56230783
O       -8.7481832      19.9401283      2.67316484
H       -9.3039608      19.7151661      1.92799962
H       -9.2657823      19.7063847      3.45916700
O       -12.230973      23.8094616      4.82520342
H       -12.603044      24.6267834      5.14525890
H       -12.974113      23.1936512      4.70071459
O       -8.3130865      22.5861244      3.27819037
H       -7.4355173      22.8897228      3.06235456
H       -8.3558969      21.6492634      3.02052355
O       -10.421461      19.6523361      4.89394474
H       -10.559474      19.0845795      5.64665127
H       -10.285260      20.5529404      5.23959255
O       -9.9760761      22.2403297      5.58519745
H       -9.3283624      22.4782314      4.90900755
H       -10.742914      22.8068161      5.42907715