57
 Ord_Energy   -202.7353820
O       -7.0890283      11.2690601      -6.5431017
H       -7.5003962      11.1214075      -5.6816816
H       -7.3168401      10.5026102      -7.0840482
O       -7.5648112      8.79794407      -7.9158816
H       -8.1438360      8.63479519      -8.6554231
H       -6.6636419      8.57832909      -8.2131071
O       -4.7156982      8.02509212      -2.4578096
H       -3.8241553      7.83546352      -2.1432919
H       -4.6288604      8.21607494      -3.4057791
O       -4.0181884      6.39451122      -6.7013187
H       -4.3135552      5.64429474      -6.1704492
H       -4.1892237      7.18486261      -6.1629209
O       -4.6705122      4.48771906      -4.7484154
H       -5.3427104      5.01238823      -4.2771892
H       -4.9504985      3.57796454      -4.6990213
O       -4.4072585      11.2053051      -6.0705256
H       -5.3433814      11.3258667      -6.2929716
H       -3.9307196      10.9677362      -6.8750591
O       -1.3358130      9.02211666      -6.4885969
H       -1.1693238      8.07383919      -6.4917964
H       -1.3992542      9.28701878      -5.5585551
O       -7.5559992      8.05339909      -5.2039804
H       -7.6756496      8.20815563      -6.1502184
H       -7.8509488      8.85257244      -4.7456140
O       -2.1110363      5.50336742      -3.8805193
H       -2.9646616      5.10757303      -4.0936718
H       -1.6933447      5.70378923      -4.7272009
O       -3.5699160      11.8251715      -3.5588727
H       -3.8414773      11.6869183      -4.4835677
H       -3.2551255      12.7237053      -3.4975650
O       -2.0042643      7.48538542      -2.0356895
H       -1.4242812      7.23229408      -1.3229390
H       -2.0053772      6.74803591      -2.6725442
O       -4.7893991      8.54145527      -5.1790123
H       -5.7465896      8.40354729      -5.2123923
H       -4.6144051      9.44532967      -5.4641876
O       -1.6317776      9.70241261      -3.8316493
H       -1.7359018      9.00594616      -3.1730854
H       -2.2596824      10.3975401      -3.6048536
O       -8.0797834      10.5182877      -3.9712488
H       -7.2984218      10.5745077      -3.3915267
H       -8.8183765      10.8496370      -3.4680204
O       -1.2946754      6.16975546      -6.5375366
H       -0.9298020      5.61887407      -7.2254447
H       -2.2512421      6.23454523      -6.7058010
O       -5.0260677      8.18177605      -8.6345243
H       -4.3482847      8.86764145      -8.5869302
H       -4.6922941      7.44365215      -8.1077899
O       -2.9988980      10.1570578      -8.2479581
H       -2.3595602      9.74303436      -7.6372571
H       -2.4899563      10.6006355      -8.9207868
O       -5.8624315      10.5747910      -2.4338796
H       -5.5261192      9.68427944      -2.2636742
H       -5.0979461      11.0865297      -2.7253401
O       -6.4587893      6.07720041      -3.4915452
H       -6.9836344      6.64253330      -4.0730409
H       -5.9264345      6.67811394      -2.9515702