90
 Ord_Energy   -338.2655748
O       7.95216357      -0.3023105      -6.5283516
H       7.88528995      -0.4791830      -5.5747825
H       7.68640514      0.61723085      -6.6300066
O       7.63601359      1.98029878      -3.4326336
H       7.56950616      2.26343769      -4.3508795
H       7.69843396      1.01295926      -3.4644516
O       2.25934890      -2.3981631      -3.9435255
H       2.28981491      -2.1986984      -2.9988970
H       2.62874535      -3.2837542      -4.0441938
O       3.61527996      -4.9615313      -4.1248452
H       3.19026469      -5.7613060      -4.4248720
H       4.38160806      -4.8206483      -4.7067093
O       4.48436792      -4.0384927      -1.5925547
H       3.89002578      -3.2958681      -1.4052519
H       4.13832670      -4.4950919      -2.3690001
O       7.91114590      -0.7415077      -3.8419398
H       8.80826619      -1.0593096      -3.6765623
H       7.31183136      -1.4547367      -3.5825728
O       6.32888726      -3.4726542      0.38937070
H       7.14442341      -3.9854823      0.33695299
H       5.69480665      -3.8381906      -0.2422091
O       8.92723740      -4.5415699      0.19883217
H       9.32006967      -5.2684383      0.67484980
H       9.22144237      -3.7236931      0.64165012
O       5.05538119      -0.2661380      -2.3398149
H       4.99640825      0.69515521      -2.2849351
H       5.82130955      -0.5415812      -1.8166969
O       3.01365902      -1.7299965      -1.2429219
H       2.93084000      -1.3384227      -0.3660278
H       3.69592267      -1.1974930      -1.6822287
O       8.58618508      -4.6496116      -5.4296923
H       9.04801300      -3.8889723      -5.8012023
H       8.83932375      -4.6819068      -4.4989114
O       9.60847438      -2.1886567      1.32241953
H       9.08056300      -1.6329678      1.90677320
H       9.85798888      -1.6351714      0.56801589
O       8.98957934      -4.1340318      -2.6161001
H       9.03928891      -4.3480994      -1.6774787
H       8.10402621      -3.7709854      -2.7704661
O       5.62220667      -1.9276149      -6.8002227
H       6.42523719      -1.4000662      -6.8766481
H       5.04709285      -1.4422252      -6.1927241
O       4.25212351      2.09261347      -5.3564574
H       3.44533252      2.42102257      -5.7460972
H       4.13338812      1.13289657      -5.2445785
O       7.12908740      -1.0145993      -0.7303385
H       6.90443595      -1.8452408      -0.2931654
H       8.07873088      -1.0129323      -0.9086343
O       10.4092445      -1.9468626      -3.5312882
H       10.0310162      -2.7741252      -3.1917423
H       10.4651576      -2.0413353      -4.4892222
O       6.51555233      -3.0471864      -3.2533405
H       5.82352448      -3.2969933      -2.6306590
H       6.29875152      -3.4581784      -4.1006079
O       4.08103286      -0.5799040      -4.8787363
H       3.33776414      -1.1765181      -4.7089553
H       4.56666045      -0.5322855      -4.0418826
O       7.90230491      -0.5197087      2.96344366
H       7.02892685      -0.9215485      2.80312639
H       8.00123830      -0.4490947      3.90920746
O       5.51453187      -1.6555982      2.34876607
H       4.75569782      -1.1983124      1.96915758
H       5.72236023      -2.3861775      1.74987903
O       9.25910469      1.90770387      -1.0892295
H       8.76163375      2.10110664      -1.8933001
H       8.61389159      1.88442477      -0.3696124
O       9.92302405      -0.7474299      -1.0272525
H       10.3033011      -1.0661365      -1.8528988
H       9.84242906      0.21777090      -1.0767512
O       3.29435263      -0.2464322      1.15535300
H       2.62411271      0.06626344      1.75839155
H       3.73879900      0.54610691      0.80519511
O       6.91967598      2.37421058      -6.1953175
H       7.00287484      3.16797760      -6.7193760
H       5.98231390      2.29658114      -5.9567001
O       4.63338830      1.94317235      0.22602614
H       4.67594373      2.32936822      -0.6555708
H       5.55007066      1.84352955      0.52051992
O       9.95625223      -2.2375259      -6.3569641
H       9.30002398      -1.5479288      -6.5452980
H       10.5392029      -2.2700625      -7.1123914
O       5.84135197      -4.3664919      -5.6179973
H       6.77492079      -4.6191977      -5.6598951
H       5.73087215      -3.5628794      -6.1511846
O       7.27428593      1.25588466      0.84437527
H       7.56360221      0.87998597      1.68378047
H       7.14154461      0.48401503      0.27166232
O       5.05623899      2.51970846      -2.5621838
H       6.00423806      2.44224528      -2.7518122
H       4.62692452      2.54515606      -3.4238848