15
 Ord_Energy   -33.6685257
O       36.6649590      1.69446146      -1.9530553
H       36.0321503      2.28981519      -1.5608894
H       36.8510857      2.03708911      -2.8473873
O       40.0075417      1.76379406      -4.2089562
H       39.9120140      1.52758956      -3.2724583
H       40.6145439      1.12539494      -4.5762257
O       37.2633743      2.18511176      -4.5558142
H       38.2290764      2.10943794      -4.5755024
H       36.9214211      1.29505622      -4.7109446
O       36.1540833      -0.3809031      -3.9387941
H       35.2803268      -0.7667328      -3.9199757
H       36.2421036      0.10202315      -3.1056990
O       39.4029579      1.14541030      -1.5524703
H       38.4462166      1.29824376      -1.5672911
H       39.6848183      1.32723522      -0.6590945