33
 Ord_Energy   -104.8095860
O       -3.6442148      4.11665154      13.8936453
H       -3.1274495      4.91704702      13.9325733
H       -3.4992833      3.73001766      13.0130119
O       -4.2927069      -0.4683846      14.3084965
H       -4.0450696      0.31601486      14.8315773
H       -3.5528886      -1.0682140      14.3446150
O       -7.0360713      -1.1684725      14.6831179
H       -7.3815131      -0.9619881      13.8058128
H       -6.0857105      -1.0029668      14.6411324
O       -8.8663053      1.92079461      13.8648453
H       -8.1542062      2.57384539      13.8502407
H       -8.8558120      1.53472638      14.7507458
O       -3.5144031      2.83046222      11.4768438
H       -4.1980204      2.15636897      11.6231289
H       -3.3624572      2.85424948      10.5358391
O       -3.7247741      1.79571497      15.6444426
H       -4.5539331      1.96467698      16.1193333
H       -3.5600330      2.58576918      15.1181965
O       -6.3637499      3.25404501      13.7997770
H       -6.0996890      2.47828555      13.2858810
H       -5.5580515      3.77830935      13.8792257
O       -6.2713160      2.36616540      16.5185566
H       -7.0015921      1.74465430      16.6172428
H       -6.3774366      2.74202156      15.6342716
O       -8.0349378      -0.0652819      12.2136784
H       -8.7069492      -0.3500276      11.6010246
H       -8.4243459      0.65095282      12.7481165
O       -5.4529867      1.01825964      12.2487125
H       -5.0122523      0.46509421      12.9095516
H       -6.3134751      0.61676467      12.0749941
O       -8.4345626      0.51215214      16.3124104
H       -7.9353313      -0.1532791      15.8063526
H       -8.9613800      0.03640573      16.9484978