90
 Ord_Energy   -337.9077405
O       0.63310258      3.53387498      3.39939270
H       0.09867195      3.53575675      4.20429224
H       1.48348806      3.13167617      3.62548509
O       -3.0662456      2.12830841      3.84347210
H       -2.4703350      2.54771907      4.47976901
H       -2.5949253      2.14823648      3.00248904
O       2.23924070      -0.2731647      3.18680151
H       1.30666555      -0.2211948      2.94287219
H       2.30513130      -0.9916803      3.82897355
O       3.31944943      -2.7672780      0.10774526
H       3.59435738      -1.8724498      0.34861428
H       3.06104763      -3.2152555      0.92242423
O       2.10846010      -2.5111967      4.80182189
H       2.23253258      -3.0163018      3.98645187
H       1.19415872      -2.6780145      5.06767765
O       -2.5262513      -1.9322533      3.87904297
H       -1.9201759      -1.3363636      3.41787727
H       -3.1448374      -1.3668805      4.35781399
O       -4.1082142      0.01697561      5.16293853
H       -3.7795965      0.78288471      4.65830439
H       -5.0609804      0.06578245      5.14468261
O       -2.0091912      -4.0843419      2.06276614
H       -1.4569148      -4.6666879      2.59905276
H       -2.4013166      -3.4465102      2.67424502
O       -0.7335143      -1.5073408      7.49339171
H       -0.0859569      -1.3947783      8.19901017
H       -1.5164561      -0.9739298      7.70158003
O       1.42828048      0.30294071      -0.9429803
H       2.20724367      0.23309867      -0.3757008
H       1.25156553      -0.5897665      -1.2582471
O       3.10076100      2.26279070      3.82986218
H       3.65926835      2.50811307      3.08410862
H       2.82178130      1.34975394      3.65600929
O       -0.0244240      2.54894186      -0.7536823
H       0.48655986      1.72619344      -0.8673925
H       -0.3485994      2.79768793      -1.6146359
O       1.36221062      -1.0851250      9.29924908
H       2.02004057      -1.1975718      8.58831814
H       1.71144998      -1.5210832      10.0713348
O       4.28453931      2.71659432      1.27510819
H       3.45466370      3.17659385      1.05332231
H       4.99685740      3.28229406      0.98910516
O       -1.1242082      2.11696356      1.77706754
H       -0.5193192      2.64151869      2.32350835
H       -0.8762516      2.27109353      0.85752486
O       2.36438857      1.38368050      6.37229641
H       2.78333327      1.84353224      5.63600497
H       1.54097763      1.00799386      6.02320381
O       1.88813398      3.92552790      0.85754110
H       1.25555624      3.54152782      0.23815819
H       1.42280450      4.00493709      1.69968752
O       3.02645477      -1.2254897      7.17423970
H       2.83117656      -1.7552000      6.39186274
H       2.98231381      -0.3013401      6.89125416
O       -2.8194918      0.20151450      7.73711142
H       -2.5087180      1.09896236      7.90756972
H       -3.2868282      0.21103837      6.89300309
O       1.13442157      -2.4849154      -1.4736471
H       1.15383487      -3.0292119      -2.2554672
H       1.96662795      -2.6487124      -0.9922991
O       -1.0334590      2.95358935      5.58084026
H       -1.2602440      3.09904293      6.50648967
H       -0.7166132      2.03756275      5.53899456
O       -0.5091126      -0.3579737      2.73214568
H       -0.7701924      0.48177783      2.32758883
H       -0.3761908      -1.0247694      2.03918547
O       -0.0771640      -5.3825047      3.78555763
H       -0.1051144      -6.2188068      4.24378527
H       -0.2339721      -4.6934374      4.45372029
O       -0.5741864      -3.2084237      5.39777231
H       -0.6287058      -2.7652487      6.25689376
H       -1.2815317      -2.8207776      4.86364079
O       -1.5728285      2.73560334      8.31942461
H       -1.8031311      3.31990844      9.03660351
H       -0.6889801      2.37812936      8.52275357
O       3.61434786      -0.0163339      0.81305091
H       3.99054214      0.86958958      0.87811656
H       3.16557500      -0.1727780      1.65744095
O       0.88895678      1.68764307      8.74933531
H       1.01867488      0.79496155      9.09019983
H       1.48696380      1.76105707      7.99347756
O       1.87107683      -3.8413172      2.36059304
H       1.34785249      -4.5477534      2.75890191
H       1.22729729      -3.2798798      1.90355029
O       -0.1414484      -2.3967869      1.01221140
H       -0.8422216      -3.0406721      1.19808687
H       0.13318572      -2.4671072      0.09100576
O       -0.0717084      0.36211013      5.47399941
H       -0.2524072      0.00349187      4.59869352
H       -0.3270014      -0.2945273      6.13509564