75
 Ord_Energy   -277.1173710
O       17.6607647      8.38280010      -12.067266
H       16.9992294      9.02727222      -12.363656
H       18.1154575      8.78573799      -11.315275
O       12.1133156      12.0812683      -11.804371
H       12.6303720      12.4024830      -12.566822
H       11.5705547      12.8080196      -11.512016
O       19.2056198      8.15501881      -14.301760
H       19.6441803      7.30985975      -14.352332
H       18.6659985      8.14475822      -13.492402
O       11.4246807      9.77245808      -13.333952
H       11.8581619      9.99517536      -14.166787
H       11.5428495      10.5400896      -12.761914
O       15.7569160      6.56162167      -11.173626
H       16.0628223      6.20810270      -10.328821
H       16.4597549      7.14087963      -11.499932
O       18.7351608      9.78873730      -9.9570894
H       19.3531590      10.4199476      -10.345450
H       17.9343052      10.2863989      -9.7306165
O       20.2108994      11.7427874      -11.308305
H       21.0559368      12.1680603      -11.191502
H       20.1756325      11.4339476      -12.231518
O       16.4500942      11.2085123      -9.2352628
H       15.6165829      11.0346298      -9.6964569
H       16.3446426      10.8405704      -8.3490076
O       11.6621704      7.27691460      -12.332727
H       11.5430717      8.16600323      -12.712872
H       10.8132515      6.84503269      -12.370411
O       17.3394165      9.42524052      -16.043954
H       17.9831963      8.89693832      -15.555536
H       16.4691353      9.09574795      -15.784267
O       14.1369209      6.42652941      -13.533823
H       13.2619877      6.61943388      -13.174491
H       14.7157097      6.30841017      -12.769970
O       14.8740377      8.67842388      -14.925101
H       15.1522408      9.21307850      -14.164672
H       14.6200428      7.81582355      -14.568476
O       12.9587317      10.4794369      -15.634640
H       13.6373596      9.80259895      -15.469553
H       12.7458715      10.4346781      -16.563152
O       16.0898438      9.74378586      -6.8460702
H       15.8554974      9.97640896      -5.9517021
H       15.4676418      9.04872131      -7.1272163
O       14.1208429      10.5774765      -10.581901
H       13.3845987      11.1108418      -10.906142
H       13.8077307      9.67290878      -10.438031
O       18.1517715      8.02730465      -7.8725585
H       18.5253429      8.56796360      -8.5816783
H       17.5595322      8.61600685      -7.3883395
O       16.3285732      12.7282829      -13.597189
H       16.9757767      12.5964546      -14.300599
H       16.7999382      12.9268188      -12.772806
O       16.6321430      5.89612865      -8.5798940
H       17.2464008      6.61328077      -8.3393507
H       16.9587440      5.10307693      -8.1636343
O       15.7232943      10.1580248      -12.792241
H       15.1222858      10.2773399      -12.045990
H       15.9772062      11.0394621      -13.095478
O       20.0084763      10.8625689      -13.852687
H       19.8611221      9.92487144      -14.024858
H       19.4329700      11.3367167      -14.465163
O       18.1048927      11.9890232      -15.647435
H       17.7866840      11.0914106      -15.855357
H       18.2969875      12.4132919      -16.479419
O       13.4787312      7.91771650      -10.306922
H       14.2754660      7.46698236      -10.624733
H       12.7644234      7.66751337      -10.905255
O       17.6129646      12.9677010      -11.189287
H       18.5241108      12.6510992      -11.207675
H       17.1896629      12.5118189      -10.451258
O       13.5568914      12.7472429      -13.973467
H       13.4092951      12.0543623      -14.628605
H       14.5142698      12.8475971      -13.880193
O       14.5473518      7.68395805      -7.7215833
H       15.1684570      6.97175980      -7.9181919
H       14.0159435      7.78872967      -8.5216569