51
 Ord_Energy   -178.2922670
O       -0.0999834      1.51229227      -1.3700729
H       -0.1231444      1.84448767      -2.2628836
H       -0.9573010      1.07639587      -1.2094382
O       3.02754736      -0.2784527      2.00184917
H       2.45935941      -0.4048584      1.22079265
H       3.90505123      -0.5494988      1.74532712
O       -0.6504777      0.06647563      2.62262154
H       -1.2107876      0.47989628      3.28808594
H       0.07997564      -0.3353459      3.11034513
O       1.38431799      -0.6210302      -0.1269204
H       0.63450694      -1.2025693      0.05889148
H       1.01865160      0.11978819      -0.6245188
O       -2.1274361      -3.6337211      2.51178527
H       -2.3246586      -4.5617127      2.60314631
H       -1.5807582      -3.3866548      3.27939248
O       -3.8027622      -1.3426550      3.04741740
H       -3.3382015      -2.1385414      2.76313853
H       -3.5564663      -1.2188210      3.97209048
O       -0.7361065      -2.7475717      4.67697191
H       0.08233849      -2.2430639      4.59045172
H       -1.3691883      -2.1659693      5.11742735
O       -2.4669425      2.83259702      2.75556016
H       -1.6866716      2.92258739      2.19279313
H       -3.0671136      2.23899460      2.28536534
O       1.13526857      1.68272889      5.32065773
H       1.52171743      1.99584866      4.48228168
H       1.58931053      2.14305449      6.02138710
O       -2.7363486      -0.9491082      5.67238569
H       -3.1870269      -0.9057247      6.51162815
H       -2.3868176      -0.0582145      5.49450254
O       -1.0258659      -1.8286694      0.67140663
H       -1.3754695      -2.5971369      1.13519716
H       -0.9643509      -1.1309403      1.34507048
O       -1.6698004      1.42470407      4.93941784
H       -0.7391997      1.61315548      5.11410856
H       -1.9971729      2.06491351      4.28824377
O       -2.3674199      0.18963453      -0.7125882
H       -1.9952909      -0.6356307      -0.3707453
H       -2.9856605      0.49267772      -0.0372030
O       1.42009151      -0.9373244      4.22162867
H       1.40480745      -0.1212305      4.73927069
H       2.07661462      -0.8159424      3.52167702
O       2.17970037      2.31222200      2.91117525
H       2.58240819      1.50966537      2.55744219
H       1.46351898      2.53846526      2.30098510
O       -4.0931658      0.86590815      1.47026122
H       -4.0013318      0.06825126      2.02037168
H       -5.0288467      0.98696917      1.32640779
O       -0.0762005      2.44886875      1.27854860
H       -0.2429644      1.57928765      1.67558777
H       -0.0442015      2.30098486      0.32611471