69
 Ord_Energy   -252.3688847
O       12.9279034      11.0397182      -14.828915
H       13.7120904      10.9991693      -14.262932
H       13.1498980      10.5352308      -15.620036
O       13.0582063      4.71935949      -16.889712
H       12.7081492      4.24264870      -17.637675
H       12.6689819      5.61139465      -16.919730
O       14.0653685      6.21300750      -11.589296
H       13.2517174      6.22307746      -11.072283
H       13.8996836      6.78041789      -12.359457
O       18.4452512      6.01250751      -11.352019
H       18.9031066      6.42588695      -12.094137
H       17.7518338      6.63057466      -11.085401
O       12.3732462      3.88257260      -14.198799
H       13.2464455      3.78694991      -13.799121
H       12.5320353      4.11017427      -15.121935
O       10.8444686      10.4304768      -13.198478
H       10.2006799      11.1336605      -13.198151
H       11.5562601      10.7028314      -13.805860
O       12.0226413      7.22163955      -16.882415
H       11.5058508      7.42740742      -16.091463
H       12.5709759      7.99737036      -17.046127
O       14.7291022      10.0572805      -10.343381
H       13.8046819      9.78502446      -10.494335
H       14.7218114      10.6632443      -9.6076766
O       19.4317754      7.06009517      -13.852715
H       20.3206591      7.14500848      -14.185941
H       19.0432283      6.27543336      -14.280738
O       11.0132519      7.86789331      -14.361140
H       10.7208667      8.72100823      -14.021879
H       11.9557401      7.81861764      -14.135041
O       17.6513498      3.59870048      -12.315412
H       18.0712458      2.88665753      -11.840533
H       17.9327537      4.42756483      -11.888408
O       18.2455044      4.82993709      -14.838167
H       17.3961389      4.86485170      -15.296212
H       18.1013783      4.27865576      -14.058502
O       15.5520081      5.04870797      -15.673500
H       14.7644529      4.86759612      -16.202479
H       15.3550273      4.73762142      -14.777039
O       16.2610300      7.76443850      -11.019539
H       15.8615615      8.56238370      -10.653902
H       15.5315369      7.13828584      -11.140798
O       13.7152936      7.91114494      -13.711240
H       14.2724999      7.71607834      -14.474355
H       13.9751398      8.79384255      -13.419986
O       13.8486877      9.42245246      -17.041491
H       14.2150066      9.80367708      -17.835999
H       14.5494740      8.87561063      -16.646869
O       11.5187708      6.57196804      -10.487613
H       11.0251185      6.20846533      -9.7582503
H       11.1496972      6.17870759      -11.301172
O       12.2065875      9.31059206      -10.926993
H       11.6894371      9.67618861      -11.654393
H       11.8991996      8.40740541      -10.780791
O       15.0032556      4.11538860      -13.115260
H       15.8626303      3.82642101      -12.785938
H       14.6811421      4.79582149      -12.506235
O       10.6545413      5.56646933      -12.808623
H       10.6050639      6.32693642      -13.402218
H       11.1972919      4.90631665      -13.263624
O       15.6313705      7.79091022      -15.748620
H       15.6802928      6.82572279      -15.801455
H       16.2275332      8.08016126      -15.044203
O       15.0214512      10.4099908      -13.117512
H       15.8531216      9.97338070      -13.344128
H       14.9712323      10.4361602      -12.153366
O       17.1424692      8.61912305      -13.551246
H       18.0070513      8.21626498      -13.700739
H       16.8324556      8.28315835      -12.697494