33
 Ord_Energy   -104.4965590
O       -7.3836197      1.32671332      11.7195807
H       -7.3991661      2.27835894      11.6607389
H       -7.0596895      1.01039612      10.8597651
O       -6.0133423      -4.9517531      13.1936579
H       -6.2820882      -5.6056656      13.8331146
H       -5.5995531      -4.2240657      13.6930380
O       -4.1438574      -1.2488136      10.8099699
H       -4.3351025      -1.9733188      10.1996927
H       -3.4718194      -1.5925797      11.4123573
O       -3.8714423      -4.7921586      11.3368740
H       -4.2369508      -4.4521808      10.5110683
H       -4.6260333      -4.9757604      11.9122276
O       -4.8433389      -3.3839616      9.04099751
H       -5.7828760      -3.1452620      8.99091816
H       -4.5246000      -3.4320035      8.14253807
O       -7.4576339      -2.5068390      9.11778355
H       -8.3051433      -2.6474385      8.70552635
H       -7.5656552      -2.7151606      10.0653334
O       -2.5192234      -2.7649488      12.5605564
H       -2.9113812      -3.5466361      12.1303473
H       -1.5961710      -2.9589014      12.6981983
O       -7.5449214      -3.0368356      11.7371588
H       -7.1822924      -2.2519836      12.1714239
H       -7.1406555      -3.7902183      12.1822052
O       -4.7925019      -2.8024165      14.3307276
H       -3.9307141      -2.7371661      13.9016523
H       -5.3051314      -2.0514895      13.9974680
O       -6.2749571      0.13136335      9.47535229
H       -6.7477421      -0.6836732      9.26850319
H       -5.4308447      -0.1510283      9.85074043
O       -6.1258292      -0.8727077      12.8214798
H       -5.4456291      -0.9642114      12.1394138
H       -6.6088118      -0.0609052      12.6154861