57
 Ord_Energy   -202.7699580
O       -2.5313792      0.33702356      -4.2667250
H       -1.5874230      0.19737952      -4.1195907
H       -2.6759753      1.28797770      -4.1762275
O       -4.9554371      -0.1808124      1.98750329
H       -5.5567665      -0.1204319      2.72599196
H       -4.3000888      0.52904785      2.10098171
O       -0.8452564      1.09904337      3.69448018
H       -0.7808826      0.13623323      3.64708519
H       -0.0965948      1.43985736      3.18820119
O       -2.9438030      1.67391229      2.04552245
H       -2.2676184      1.52311039      2.72235370
H       -2.5841119      1.34234440      1.20671833
O       -5.4633078      0.88660550      -0.6467942
H       -4.9497714      0.27456382      -1.1917855
H       -5.4425215      0.51040029      0.23970567
O       -0.5469808      2.38655424      -2.1352682
H       -0.1647776      1.63108218      -2.6008982
H       -1.2591220      2.72791457      -2.6933758
O       0.21764246      0.02860647      -3.4659626
H       0.94911087      -0.1866931      -4.0385713
H       0.15929307      -0.6877799      -2.8093783
O       -0.6912960      -1.6960347      3.14261127
H       -0.4816234      -2.4464867      3.69135809
H       -1.5259344      -1.9057079      2.68429279
O       -4.1935110      3.24617004      -1.3890613
H       -3.7994411      3.63328648      -0.6005896
H       -4.7050786      2.47469807      -1.1043821
O       -1.7849280      0.71010190      -0.2481021
H       -1.0478533      0.19390731      0.10290338
H       -1.4122301      1.35809374      -0.8601592
O       0.47317419      -0.5650385      0.85643691
H       0.15580703      -1.0261321      1.64444816
H       0.84589565      0.27428028      1.15681684
O       -0.1368340      3.68982768      0.29877359
H       -0.1758504      3.35098910      -0.6065083
H       -1.0325212      3.97008777      0.52026248
O       -2.8857753      4.19911575      0.99400520
H       -2.9764509      3.35410881      1.46638811
H       -3.2334213      4.87529707      1.57044923
O       -3.5109603      -0.6779125      -1.9167878
H       -2.9444696      -0.1794997      -1.3071343
H       -3.2728889      -0.3941466      -2.8109417
O       -2.7762496      3.11667299      -3.6541886
H       -3.0251677      3.83511209      -4.2284340
H       -3.3464798      3.17665052      -2.8647470
O       0.05166939      -1.8998818      -1.5592047
H       0.34442377      -1.5225776      -0.7179735
H       -0.7715274      -2.3653757      -1.3717378
O       1.20718586      1.95115137      1.88003862
H       2.05277467      2.33612156      2.09414530
H       0.73694026      2.60211658      1.32898653
O       -2.9312570      -2.1975698      1.74614108
H       -2.8415241      -2.5190255      0.84079593
H       -3.6839492      -1.5948504      1.76533651
O       -2.5529961      -3.0128862      -0.9598771
H       -2.9268181      -3.7862551      -1.3746385
H       -2.9797000      -2.2398078      -1.3710578