45
 Ord_Energy   -153.0416260
O       2.02907848      -1.9983431      0.08582910
H       1.96442890      -2.5077953      0.90378147
H       1.27759933      -1.3877176      0.08273320
O       -2.2809093      -1.7329846      -1.1856691
H       -2.8618469      -1.3787607      -1.8532561
H       -1.8665484      -2.5277802      -1.5666029
O       1.52803624      -3.5949759      2.37481380
H       2.39902091      -3.8988797      2.66014481
H       1.12481380      -4.3289032      1.88673317
O       -0.2490394      -0.5202730      0.37540734
H       -0.9533769      -0.8354664      -0.2059282
H       -0.4539211      -0.8668815      1.25275528
O       4.07227182      -4.6615796      2.82709765
H       4.56023645      -4.3589267      2.03845358
H       4.70594358      -4.7203025      3.53648782
O       4.68489981      -1.3921327      -0.3650509
H       3.72862387      -1.5070792      -0.2410134
H       4.80649424      -0.4973978      -0.6703705
O       3.97921824      -5.7748518      -1.2575026
H       4.40110254      -6.4266796      -1.8110623
H       3.70447731      -6.2324485      -0.4426369
O       0.56610191      -5.6230492      0.76014078
H       -0.3822555      -5.7537655      0.64411765
H       0.88843304      -5.1931567      -0.0463566
O       -2.1611230      -5.6341767      0.19554628
H       -2.4020142      -4.7934169      0.62547165
H       -2.9143097      -6.2124934      0.27531680
O       -2.6752681      -3.1863079      1.23011160
H       -2.0517163      -2.7972927      1.85535300
H       -2.6636416      -2.6144852      0.45115936
O       5.27625370      -3.9337561      0.53339261
H       5.19587469      -3.0231394      0.21492651
H       4.95471478      -4.5000386      -0.1774284
O       -0.6528692      -1.9738830      2.83953643
H       0.13659120      -2.5353534      2.76602840
H       -0.6768252      -1.6519063      3.73728633
O       3.09178162      -6.7795453      1.12114835
H       3.45361757      -6.2031421      1.80527496
H       2.14876962      -6.5684208      1.07346988
O       -1.1660379      -4.0644626      -2.0237309
H       -1.5177316      -4.7139554      -1.4027705
H       -0.2038133      -4.1477518      -1.9879329
O       1.59182823      -4.2726750      -1.4602890
H       2.42931819      -4.7442822      -1.5479211
H       1.78390419      -3.4239544      -1.0354015