9
 Ord_Energy   -8.8575983
O       25.2453213      -3.9753086      3.67284727
H       24.7939930      -3.4671502      2.99743390
H       24.7453556      -4.7890586      3.74942327
O       27.8706398      -4.6834440      2.56295013
H       28.4991150      -4.8310604      3.27777815
H       27.0555954      -4.4157409      3.00088620
O       29.9938831      -5.0684137      4.55525112
H       30.6167030      -5.6869549      4.17105532
H       30.4711494      -4.2400541      4.61892414