30
 Ord_Energy   -93.3383255
O       4.61398315      4.99655008      7.32966661
H       4.29678869      5.68690252      7.90498018
H       5.44073439      5.32054567      6.92708826
O       5.57041025      2.36365700      7.63894367
H       5.17260790      3.24449539      7.65417910
H       5.23759460      1.91943967      6.84793472
O       8.10719872      3.15498877      6.60552931
H       7.25599051      2.86837196      6.96361828
H       8.77211475      2.86512995      7.24371338
O       9.59405422      2.16817570      8.72127819
H       8.79166317      1.82127011      9.14471245
H       10.1481895      2.48482895      9.43026066
O       6.18705416      4.91266870      3.38740969
H       6.44119930      5.18957090      2.51163793
H       6.58382940      4.03435755      3.53154588
O       6.91501760      5.63892269      6.05629349
H       7.49284649      4.89237261      6.26978874
H       6.72732639      5.56203222      5.11234570
O       7.15295649      2.45984030      4.06368732
H       6.38424730      1.94825923      4.34253120
H       7.65883303      2.63235760      4.87087822
O       4.66797352      1.43864334      5.14096069
H       4.05848885      0.79068399      4.79852629
H       4.28800488      2.31482124      4.94663858
O       3.85617256      4.00373602      4.74931097
H       3.94680929      4.41252089      5.61937428
H       4.54079390      4.40505838      4.19737720
O       7.13171387      1.30462396      9.68968201
H       6.72789431      0.52274233      10.0583429
H       6.50630903      1.64072251      9.02847958