69
 Ord_Energy   -252.3233784
O       12.9334731      10.1370853      -15.706558
H       13.3259707      9.40358699      -16.198350
H       13.5710967      10.8593673      -15.750931
O       16.7633418      6.42205239      -13.382181
H       17.6540488      6.63948657      -13.081233
H       16.5150052      7.14956400      -13.974164
O       18.4811473      10.2671157      -12.718459
H       18.6103867      10.4210810      -11.774868
H       17.5633564      10.5206616      -12.900959
O       18.8037138      9.85595099      -15.476122
H       18.8320392      10.1328619      -14.550117
H       19.3829214      9.08785783      -15.555542
O       13.4296835      5.53970073      -15.882885
H       12.7815719      4.88220970      -16.120152
H       13.1742067      5.88021411      -15.006402
O       15.8284385      9.83914383      -9.5178274
H       15.8587279      8.90720395      -9.2654341
H       15.1385259      9.90720842      -10.188884
O       14.7799237      6.88464390      -11.552339
H       15.1667945      6.82293932      -10.671121
H       15.4851131      6.65386655      -12.176282
O       15.8585447      10.8578821      -13.319069
H       15.1496048      10.5239281      -12.751337
H       15.4836027      11.3882206      -14.033017
O       18.0645511      6.71128518      -17.088543
H       17.4307979      6.08247752      -16.711052
H       17.5678822      7.29459029      -17.670459
O       16.2001402      7.02391078      -9.1321986
H       16.2429634      6.48346776      -8.3480997
H       17.1154824      7.13633651      -9.4465103
O       20.1221089      7.36686449      -15.494520
H       19.4051618      7.06569526      -16.083793
H       20.9379031      7.04817060      -15.870546
O       16.2690517      5.05233705      -15.784284
H       16.4747538      5.31954591      -14.878081
H       15.3099535      5.11191588      -15.857620
O       16.9519438      10.9602743      -17.242463
H       17.7072961      10.7031659      -16.694881
H       16.7732158      10.2029728      -17.812316
O       16.2533845      8.63326829      -14.931879
H       15.9900428      9.35191615      -14.343084
H       17.1085885      8.89542794      -15.293740
O       11.8049072      9.31506559      -13.397943
H       12.1730223      9.63759236      -14.240499
H       10.8929050      9.59108384      -13.371083
O       18.7039740      7.58497025      -10.025321
H       18.7627552      8.54193506      -9.9099868
H       19.0035981      7.41226408      -10.926961
O       12.7578367      6.60805833      -13.491845
H       12.3521639      7.48254807      -13.466471
H       13.3800139      6.57997674      -12.753335
O       19.2468807      7.54361584      -12.795661
H       18.9696351      8.47171615      -12.780019
H       19.6524925      7.39529580      -13.658763
O       18.4519724      10.4392711      -9.9153985
H       17.4969302      10.3120131      -9.7698949
H       18.7471196      11.0729405      -9.2672502
O       16.3646571      8.51009826      -18.619679
H       15.5761471      8.30171204      -18.089857
H       16.1296643      8.36044491      -19.532195
O       14.0346464      9.56830935      -11.717284
H       14.3136110      8.64122100      -11.671032
H       13.1923601      9.57194044      -12.188333
O       15.0103523      12.0791324      -15.707762
H       15.6957494      11.6968623      -16.285245
H       14.9351512      12.9992184      -15.946540
O       14.3692421      7.99416148      -16.822162
H       15.0248042      8.18376353      -16.130460
H       13.9890738      7.13173088      -16.614362