75
 Ord_Energy   -277.0387270
O       14.4256048      9.69810486      -10.680891
H       14.2748547      10.3228550      -11.403013
H       15.1230507      10.0417204      -10.108509
O       13.2029123      10.5131540      -16.458044
H       13.1863832      11.3839178      -16.041320
H       12.9197674      9.89015579      -15.776669
O       16.7603550      10.9306402      -13.704213
H       17.2981243      10.8918276      -12.900303
H       15.8334665      10.9308901      -13.433808
O       13.3248034      4.83944082      -12.891979
H       13.8947296      4.82004404      -12.109559
H       13.9106798      4.68652821      -13.640379
O       16.7310219      7.64641047      -8.4352865
H       15.9149265      7.13612986      -8.3708877
H       17.4074135      7.05512190      -8.7863760
O       16.1616554      12.6042852      -15.864287
H       16.1196842      11.9402008      -16.562677
H       16.5368824      12.1480131      -15.096985
O       15.7456579      7.57095003      -11.948789
H       15.2796106      8.30282211      -11.524594
H       15.4844131      7.53987074      -12.878078
O       14.0131598      11.0441236      -13.040443
H       13.5488882      10.2839575      -13.422307
H       13.8001108      11.8039732      -13.594880
O       18.4945126      7.81380463      -11.744074
H       18.7564297      7.25362015      -11.004908
H       17.5283699      7.74379635      -11.803831
O       18.1598129      10.5672531      -11.388156
H       17.6823387      10.5799141      -10.550751
H       18.4422512      9.64957047      -11.507291
O       17.9222317      4.40631580      -14.175969
H       18.2249451      5.32846737      -14.275841
H       18.6293392      3.85093737      -14.494343
O       15.2966604      4.63594437      -15.003384
H       15.1852074      4.10931969      -15.791453
H       16.2064552      4.49066162      -14.696950
O       17.6853886      4.19373131      -11.290442
H       16.7519054      4.37790108      -11.107199
H       17.7837410      4.23820972      -12.247217
O       12.6441545      7.71818304      -9.9408321
H       12.2436447      7.44435215      -10.773283
H       13.1844854      8.49488926      -10.147494
O       18.7031841      6.95782900      -14.384261
H       18.7671242      7.29914713      -13.480734
H       18.2920914      7.65420818      -14.910376
O       13.6033716      12.9837866      -15.042060
H       14.5267448      12.9633675      -15.353091
H       13.3042221      13.8849955      -15.121444
O       12.8053350      8.83147812      -14.208409
H       12.2738113      8.26790810      -13.634811
H       13.5938358      8.31189919      -14.432338
O       15.6810303      10.3355284      -17.589466
H       15.5979567      10.3207483      -18.539119
H       14.7759619      10.3396807      -17.229753
O       11.6091328      6.91213894      -12.507285
H       10.7174606      6.57614326      -12.556174
H       12.1996298      6.15644169      -12.677263
O       14.2467184      6.20896149      -8.3792200
H       13.7794247      5.90927649      -7.6045761
H       13.6198149      6.74878359      -8.8955516
O       15.1344004      5.13993311      -10.804742
H       15.3654537      5.99846172      -11.195334
H       14.8188601      5.32935810      -9.9135456
O       18.7806530      6.00635386      -9.5979337
H       18.4329491      5.30494404      -10.177331
H       19.5257187      5.63526011      -9.1331253
O       15.0832462      7.41497278      -14.650900
H       15.8229933      7.89435959      -15.049261
H       15.1608820      6.48042440      -14.873453
O       16.5843792      10.2864265      -9.0103893
H       16.6772423      9.34531403      -8.7739849
H       16.6786480      10.7833691      -8.2023611
O       17.1387844      8.97456551      -15.604696
H       16.7490845      9.37465954      -16.391807
H       17.0942154      9.64770222      -14.907146