84
 Ord_Energy   -312.8508491
O       3.65447981      -1.4057835      3.28041961
H       4.13744152      -1.5256554      4.09369545
H       3.16912067      -0.5650196      3.36469367
O       2.45495094      -0.2274989      -2.9439215
H       3.40964420      -0.2761540      -3.0728890
H       2.21187057      0.70196529      -3.0510596
O       -0.7703352      3.12757182      0.68683574
H       0.14444429      2.83373438      0.84525217
H       -0.8493265      4.00511792      1.05051138
O       5.49415470      -2.8068838      -3.7777518
H       5.00135104      -2.5731411      -4.5866826
H       6.22367871      -3.3565298      -4.0510651
O       -0.4560173      -0.3726056      3.67701492
H       -0.9672485      -0.0386550      2.91888961
H       -1.0566493      -0.4027126      4.41707314
O       1.58246621      -4.2207584      -1.6827457
H       1.61971979      -5.1728600      -1.7000251
H       2.49560646      -3.9044453      -1.5482409
O       1.76058626      2.14852587      0.95560318
H       1.72341785      1.26408268      0.55628744
H       2.43379289      2.63483268      0.46428043
O       -1.8127563      0.61758473      1.55363929
H       -1.8711177      0.12931793      0.72207423
H       -1.5814041      1.52285388      1.31459877
O       -1.5546721      -0.7121313      -0.9149629
H       -1.8636172      -1.0557280      -1.7610678
H       -0.9759610      -1.3942439      -0.5415091
O       0.34833354      0.79315705      -6.5280278
H       -0.1364021      1.04726122      -7.3094803
H       -0.2674805      0.88192999      -5.7793698
O       2.10986361      0.82483379      3.43612974
H       2.05301439      1.38702968      2.65354161
H       1.21565572      0.49239831      3.59004340
O       3.63788123      3.23972469      -0.8000090
H       4.17628013      4.02618428      -0.7903572
H       4.25008319      2.48033095      -0.7752689
O       4.34388903      -1.2132010      0.56279857
H       4.27483378      -1.3544745      1.51446890
H       3.47424362      -0.8821487      0.28998016
O       1.84445580      2.48191722      -2.8765740
H       2.43349913      2.79945501      -2.1810194
H       0.97609995      2.32052705      -2.4814915
O       4.05825626      -3.2672238      -1.3666352
H       4.29336646      -2.6027458      -0.7068623
H       4.58849428      -3.1057323      -2.1561063
O       5.24940596      1.09775768      -0.7767084
H       5.35953376      0.74216149      -1.6699683
H       5.08335254      0.33374793      -0.2107033
O       4.94734698      0.89693637      -5.8846042
H       4.10705063      1.38187448      -5.7939042
H       5.47979027      1.38496830      -6.5063145
O       5.26470419      -0.0667425      -3.2875386
H       5.25249040      0.33240772      -4.1679191
H       5.49379588      -0.9981479      -3.4017854
O       1.86344419      -0.3004134      -0.2498135
H       2.05864607      -0.2773074      -1.1967790
H       1.28398702      -1.0557030      -0.0899473
O       0.23986038      -2.5212781      0.10626873
H       0.66123941      -3.1931291      -0.4424985
H       0.50732226      -2.6605922      1.02801318
O       -1.9080239      -1.6834434      -3.5343293
H       -2.4012130      -2.3757824      -3.9660746
H       -0.9692902      -1.9400955      -3.5683754
O       2.60411034      2.18381599      -5.5611653
H       1.84381633      1.72883112      -5.9459544
H       2.33577449      2.44885836      -4.6720423
O       -1.3400139      0.94850765      -4.4152422
H       -1.1673971      1.40002976      -3.5804687
H       -1.6538795      0.06703505      -4.1767515
O       4.22874570      -1.8940750      -5.9676726
H       3.27591069      -1.9380286      -6.1327635
H       4.47460405      -0.9680888      -6.0739787
O       0.74807464      -2.3035649      -3.5662986
H       1.34393996      -1.5603563      -3.3859504
H       1.02490211      -3.0320063      -2.9977600
O       -0.6370943      1.80700517      -1.7983793
H       -0.7990878      2.39087270      -1.0480519
H       -0.8520034      0.91523218      -1.4898665
O       1.47599681      -1.8431017      -6.2646308
H       1.16875310      -2.1222310      -5.3927947
H       1.10362692      -0.9639920      -6.4041976
O       1.06829321      -2.5661892      2.69112944
H       1.97862715      -2.3142868      2.88444461
H       0.51445096      -1.8813747      3.08938228