12
 Ord_Energy   -22.7146149
O       -5.5307560      10.3657351      9.81144714
H       -4.8217282      10.9135828      9.48520088
H       -5.2773280      9.44425201      9.62378311
O       -7.6793108      9.06865978      8.33719921
H       -8.5185976      9.09587860      8.79461098
H       -7.1269688      9.72836018      8.77828503
O       -6.4321389      8.73366070      12.0000134
H       -6.0277986      8.90147972      12.8491650
H       -6.1873292      9.48593712      11.4424953
O       -5.5009522      7.62536049      9.51926517
H       -5.8203539      7.64972496      10.4316378
H       -6.2821774      7.79054928      8.97363758