24
 Ord_Energy   -73.2936554
O       1.94727004      3.45087075      -0.1127353
H       1.17478311      3.73569179      -0.6182215
H       2.10489774      2.53287506      -0.3692764
O       -1.9175375      0.64244550      0.75771064
H       -2.6584034      0.05018858      0.66416997
H       -1.5331420      0.75592136      -0.1302003
O       -1.5423982      3.43456268      1.21451330
H       -0.7522280      3.45000625      1.77018237
H       -1.8086953      2.50732327      1.16266251
O       1.99231350      0.63788038      -0.5927074
H       1.60651553      0.50058872      0.29122317
H       2.65877676      -0.0332350      -0.7103127
O       -0.6302083      1.15099359      -1.5949102
H       -0.6419352      2.11463904      -1.6629226
H       0.28817934      0.91182226      -1.4139775
O       0.72681564      0.50003368      1.82186830
H       -0.2092552      0.43894029      1.59075260
H       0.84721208      1.38162327      2.19827247
O       1.02501559      3.26807785      2.44982123
H       1.43286526      3.40248179      1.57539773
H       1.52834642      3.78601408      3.07175398
O       -0.5983123      3.98805690      -1.2860884
H       -1.0047595      3.87746859      -0.4076845
H       -1.0272407      4.73349285      -1.6968752