51
 Ord_Energy   -178.6022800
O       3.85482430      0.48209000      2.18531728
H       4.67018318      0.66504967      1.70682752
H       3.34375525      -0.1039339      1.60232365
O       3.23222351      -1.7929360      -3.0076241
H       2.28137136      -1.6481242      -3.0733270
H       3.59138989      -0.9754090      -2.6352310
O       -0.1892979      1.47782683      0.44562948
H       0.29110453      1.35806966      1.28422272
H       -0.8612993      2.13435221      0.60886312
O       0.79685903      -1.6164209      3.85810137
H       0.19672051      -1.8519632      4.56096888
H       0.59805268      -2.2096781      3.11278129
O       1.32725585      1.43250513      -1.9991636
H       2.26480246      1.28511763      -1.8128870
H       0.89022720      1.57491696      -1.1505144
O       2.53935885      -1.1665872      0.39785993
H       2.75097370      -2.0927898      0.56427312
H       1.59212351      -1.1372256      0.21836260
O       5.96772909      -2.2432730      0.37272593
H       5.73295212      -2.7066795      1.18627846
H       5.53154564      -2.7248463      -0.3400470
O       -0.2003675      -1.2485799      -0.2576470
H       -0.3664187      -0.3261689      -0.0198848
H       -0.0710385      -1.2732093      -1.2148358
O       4.97027302      -3.6355326      2.66185045
H       4.51764631      -2.9490823      3.18554258
H       5.42040300      -4.2031488      3.28097296
O       4.43435907      -3.7423670      -1.5643301
H       3.98735976      -3.0761339      -2.1159703
H       4.81021595      -4.3829255      -2.1623013
O       3.64344311      -1.6801309      3.94084311
H       3.83794188      -0.8592758      3.46778560
H       2.68186641      -1.7160239      4.01396990
O       0.30341014      -3.2162895      1.71027493
H       1.11761403      -3.6181070      1.37967908
H       -0.0236140      -2.6449749      1.00211513
O       0.47705054      -0.9473691      -2.9867157
H       0.75352359      -0.0489114      -2.7272899
H       -0.0551132      -0.8553951      -3.7726826
O       6.07792282      0.47763389      0.39102334
H       6.98698997      0.76386541      0.39077836
H       6.09125185      -0.4969966      0.38200253
O       3.88464308      0.41452378      -1.4145336
H       4.70543861      0.61565649      -0.9532063
H       3.39741468      -0.1774062      -0.8173500
O       2.90428424      -3.9304647      0.78308642
H       3.58395195      -3.9648277      1.46981955
H       3.36185336      -4.0179305      -0.0638658
O       1.14992285      0.99827486      2.74429107
H       0.96502376      0.15010449      3.16734529
H       2.11097670      1.04330873      2.65575576