39
 Ord_Energy   -130.5351870
O       -3.2698984      -3.1221072      -1.7745146
H       -3.6827576      -2.5302696      -2.4150810
H       -2.8059499      -3.7955594      -2.2896628
O       0.16767219      -0.8333281      -2.0313305
H       0.80077583      -0.2433961      -1.6310372
H       -0.3995468      -1.1676068      -1.3140329
O       -1.9654104      -5.1866951      -7.2994117
H       -2.5400240      -4.5560898      -6.8448824
H       -1.2294570      -4.6714410      -7.6529855
O       -3.1406621      -3.3305325      -5.5139207
H       -3.6745135      -2.6697266      -5.0563969
H       -2.7203319      -3.8579213      -4.8178257
O       0.41025686      -3.6607034      -7.8634419
H       0.83930582      -4.1328997      -7.1271219
H       1.02990365      -3.6559791      -8.5876398
O       0.42597395      -2.9656179      -3.8545305
H       0.46571779      -2.2905278      -3.1669645
H       0.04362608      -2.5346975      -4.6334190
O       -0.8392329      -1.8505808      -6.0994191
H       -1.6760726      -2.3243420      -5.9792585
H       -0.3756566      -2.3023741      -6.8147487
O       -4.1722173      -1.3257592      -3.8252635
H       -4.8822112      -0.6898027      -3.8183939
H       -3.3411054      -0.8197664      -3.8720648
O       1.34502947      -4.9447403      -5.6475057
H       0.71806365      -5.6597862      -5.4808626
H       1.22084856      -4.3102603      -4.9285092
O       -1.5024583      -1.8374863      -0.1570844
H       -2.1746919      -2.3098187      -0.6784986
H       -1.6658623      -2.0653481      0.75352407
O       -1.7309039      -4.7108888      -3.5257473
H       -0.9514044      -4.1357417      -3.5323667
H       -1.4812834      -5.5175819      -3.9922196
O       -0.8886975      -6.7223296      -5.3187489
H       -1.3107657      -6.2686181      -6.0704789
H       -1.0284067      -7.6566162      -5.4457116
O       -1.7450453      -0.1136281      -4.0579257
H       -1.1069906      -0.2601633      -3.3491559
H       -1.3596336      -0.5104669      -4.8504757