63
 Ord_Energy   -227.5649260
O       0.40635541      -6.2910676      1.42123032
H       -0.0478374      -6.5317630      0.60519707
H       0.01320179      -5.4526786      1.70329964
O       -1.3187116      -0.1957607      -1.9158647
H       -0.4719870      0.16674025      -2.2008709
H       -1.3259054      -1.1128386      -2.2254757
O       1.32375479      0.53998232      -2.6716144
H       1.63467848      1.27509463      -3.1917908
H       1.63496840      -0.2710640      -3.1173393
O       2.23454905      -1.7163565      -3.7646791
H       2.98066878      -2.0601289      -3.2503442
H       1.73318350      -2.4762122      -4.0776319
O       3.34682107      -2.9927651      2.23928905
H       2.57802415      -2.7003130      2.74180341
H       3.24379659      -3.9407672      2.08925557
O       4.21442509      -2.7015221      -2.1082067
H       4.40467548      -2.2028558      -1.3058098
H       3.82740259      -3.5332000      -1.8007569
O       0.76152247      -2.9557695      -0.4081084
H       1.13586771      -2.0743353      -0.2818788
H       0.34085655      -3.2252705      0.41785616
O       -1.0207954      -2.8822200      -2.5157439
H       -0.3646189      -2.9290602      -1.8014748
H       -0.5826958      -3.2079110      -3.3105616
O       2.74565744      -4.8092403      -1.0120893
H       2.97888064      -5.2110495      -0.1681033
H       2.05540609      -4.1554698      -0.8179726
O       0.11693876      -0.0601563      1.99815953
H       -0.7476601      -0.0208501      1.57655978
H       0.76330346      -0.0652453      1.27568924
O       3.03827095      -5.7595977      1.63399899
H       3.51044321      -6.5059928      1.99237299
H       2.09880853      -6.0157504      1.58884645
O       4.44420481      -1.3242703      0.41345549
H       4.09858704      -1.9497565      1.07632136
H       5.24857664      -0.9605321      0.77308685
O       -2.6256601      -4.4963045      -0.9406651
H       -2.1787731      -3.9319944      -1.5892031
H       -2.8340327      -3.9237752      -0.1960832
O       -2.3722555      -0.0654339      0.54269201
H       -2.9026496      0.72595453      0.58505619
H       -1.9914323      -0.0950686      -0.3547934
O       -1.0758169      -6.7332372      -0.9730445
H       -1.6367451      -7.4901266      -1.1234548
H       -1.6619156      -5.9567370      -0.9429140
O       -2.9994518      -2.6587178      1.28971326
H       -3.8342897      -2.6417684      1.75203156
H       -2.8136894      -1.7466661      1.01473320
O       0.99705344      -2.0272140      3.60410762
H       1.01162696      -1.7549504      4.51739693
H       0.68625426      -1.2628094      3.08434725
O       0.59203398      -3.9493863      -4.5415124
H       0.75451714      -4.7246208      -3.9736557
H       0.51859039      -4.2742738      -5.4344148
O       1.87257147      -0.3836225      -0.0959249
H       2.80669165      -0.5970779      0.02671136
H       1.75872171      0.00692673      -0.9718573
O       -0.5020201      -3.7343409      1.99355233
H       -1.3862848      -3.3732328      1.85594285
H       -0.0497452      -3.1866395      2.64836478
O       0.98917085      -5.9883804      -2.8156609
H       1.69973850      -5.6917057      -2.2294549
H       0.27882448      -6.2885584      -2.2367177