75
 Ord_Energy   -277.4718630
O       10.2548666      10.4950867      -11.006906
H       9.45940208      10.3767080      -10.494944
H       10.9553595      10.7568636      -10.382411
O       14.7391729      10.4969215      -12.805095
H       14.4644566      9.74110603      -12.270650
H       15.6486444      10.7173166      -12.567090
O       17.1125832      13.1599798      -13.973060
H       16.2984791      13.6147633      -14.216960
H       17.4213428      12.7274094      -14.779693
O       15.9788818      7.13884974      -12.891727
H       15.8363762      7.14415789      -13.845756
H       16.7944565      7.63463593      -12.745983
O       10.8822489      12.1207905      -13.201284
H       10.5600758      11.6310635      -12.434765
H       11.7662163      12.4472837      -12.979803
O       12.3345366      15.1486311      -16.293153
H       12.0295019      16.0250492      -16.511203
H       11.5617285      14.6567240      -15.961338
O       15.0196323      11.8898287      -16.761222
H       15.9831448      11.8385811      -16.747274
H       14.6857767      11.0993128      -16.313255
O       14.4254742      9.45021725      -9.0094585
H       14.5874834      8.80987072      -8.3216619
H       14.2752542      8.94831371      -9.8299827
O       13.4793882      12.9096308      -12.669626
H       13.8212099      13.3733006      -13.445606
H       13.8908548      12.0316496      -12.667850
O       14.0380268      9.73827457      -15.326886
H       14.3496542      10.0063200      -14.448706
H       13.0737314      9.79966545      -15.308414
O       18.3032112      8.80193996      -12.645295
H       17.9989910      9.68716621      -12.377793
H       19.1054516      8.62893486      -12.159667
O       12.2546701      11.2384176      -9.3579301
H       12.9507580      10.6023102      -9.1516923
H       12.7002869      12.0829840      -9.4959669
O       10.5199375      11.4324980      -17.377838
H       10.0044975      11.2481556      -18.158248
H       11.3215113      11.9001417      -17.674648
O       14.5287704      13.9894915      -14.971818
H       13.8389149      14.5246563      -15.383631
H       14.6955090      13.2567053      -15.582632
O       17.7860260      11.7112617      -16.352569
H       17.8621521      10.7944002      -16.031972
H       18.5360146      11.8679991      -16.919872
O       13.7677689      13.5466347      -10.033945
H       13.6608725      13.4127703      -10.991514
H       13.6992760      14.4844551      -9.8759441
O       17.9034138      9.18206406      -15.425070
H       18.1367912      9.03415871      -14.500212
H       17.1854248      8.56724358      -15.618491
O       15.9846239      11.7587423      -9.6941976
H       15.3077087      12.4446220      -9.7373476
H       15.5291109      10.9592409      -9.4017705
O       11.3202610      10.0657072      -15.055003
H       10.9811687      10.3984671      -15.895348
H       11.1795406      10.7765474      -14.412527
O       15.6030989      7.53786850      -15.707043
H       14.9837284      8.28434372      -15.633291
H       15.2535563      6.95266533      -16.373765
O       12.7283230      12.8719625      -18.022930
H       12.6381493      13.7228279      -17.577278
H       13.5743599      12.5087090      -17.726947
O       11.5549498      8.51779175      -12.623837
H       11.0532446      9.11311245      -12.052003
H       11.4327593      8.85277939      -13.519344
O       17.3027382      11.2393875      -12.026637
H       16.9420128      11.5037708      -11.166763
H       17.3023052      11.9987850      -12.628392
O       10.2571831      13.5986404      -15.488605
H       10.1809893      12.8881073      -16.136714
H       10.3587847      13.1625528      -14.631376
O       13.9827738      8.23009872      -11.384361
H       14.6333551      7.72121906      -11.891499
H       13.1228666      8.19640350      -11.829579