36
 Ord_Energy   -120.0885010
O       6.04447937      -5.2019043      -24.966381
H       6.44537258      -6.0715022      -24.849382
H       6.18516636      -4.7279233      -24.132917
O       2.85990763      -2.2802949      -22.987695
H       3.71696544      -1.8485814      -23.093778
H       3.01575732      -3.0482862      -22.421857
O       7.07551479      -6.4176068      -21.642498
H       6.27682161      -6.6905307      -21.173288
H       6.96455002      -5.4750161      -21.825330
O       5.02188873      -2.7516725      -25.952653
H       4.07266474      -2.9281632      -25.954351
H       5.45278835      -3.6084806      -25.832332
O       4.46755552      -7.2068324      -20.725320
H       4.15411425      -7.8239812      -20.069980
H       4.33785057      -7.6273441      -21.594890
O       4.24310255      -8.1314458      -23.278745
H       5.14259100      -8.1376400      -23.630083
H       3.76916862      -7.4543628      -23.779909
O       6.19619942      -3.8669078      -22.497743
H       6.11977196      -2.9463627      -22.776039
H       5.31140280      -4.1345534      -22.206836
O       3.62313581      -4.7752695      -21.885585
H       3.44315624      -5.1404438      -22.764999
H       3.80929565      -5.5313124      -21.316070
O       6.98061752      -7.7009806      -24.044416
H       7.11388206      -7.2903246      -23.170684
H       7.72489977      -8.2768964      -24.195919
O       5.51400042      -1.3825031      -23.645347
H       5.90302324      -0.5243513      -23.789489
H       5.38564920      -1.7859112      -24.522766
O       3.34024429      -5.7470326      -24.507619
H       2.82857466      -5.0390462      -24.917058
H       4.26421022      -5.5878534      -24.752719
O       2.24800324      -3.3177399      -25.435091
H       2.36891556      -2.8937327      -24.566371
H       1.42933846      -2.9861466      -25.793384