27
 Ord_Energy   -83.0525055
O       29.1241970      -19.239917      13.5192804
H       29.5620556      -18.650322      12.8802691
H       28.4306545      -19.683052      13.0397043
O       33.5731354      -15.718178      15.7173882
H       32.6026115      -15.674962      15.7974749
H       33.9331284      -15.264466      16.4740753
O       33.2773285      -17.936662      12.1396055
H       33.8945580      -18.517351      11.7034330
H       33.2723846      -18.187084      13.0810823
O       33.1932259      -18.399465      14.8160830
H       32.3055344      -18.572681      15.1542368
H       33.4593849      -17.554483      15.2013083
O       30.5017796      -18.612983      15.7639580
H       30.1841030      -19.126075      16.5023136
H       29.9732609      -18.878353      14.9911356
O       33.2919083      -15.194013      12.9245806
H       33.3991089      -16.073728      12.5394459
H       33.5396233      -15.282918      13.8542004
O       30.4685345      -17.520961      11.9065847
H       31.4146748      -17.711183      11.8736267
H       30.3940487      -16.608741      12.2136154
O       30.5841713      -14.889439      12.9903212
H       31.5555229      -14.900853      12.9167576
H       30.2913494      -14.054414      12.6354017
O       30.8561897      -15.779800      15.6958733
H       30.6266727      -16.717163      15.7372904
H       30.6087418      -15.473675      14.8139534