81
 Ord_Energy   -301.1165015
O       -1.2533288      -2.2211458      3.22310876
H       -2.1192123      -2.5546011      2.94936857
H       -0.6175535      -2.5520858      2.57657927
O       1.44111476      -2.0942172      -2.6151236
H       0.68870669      -1.4899132      -2.7247109
H       1.10816402      -2.8930526      -2.1893661
O       -1.5153586      1.37370204      1.26872541
H       -1.3896562      1.11946188      2.19148470
H       -0.6461947      1.62268402      0.91846629
O       1.91569115      -1.9827831      -5.3668744
H       2.11984055      -1.0461799      -5.4849415
H       1.86611807      -2.1218135      -4.4114031
O       2.55388432      -0.1921028      -0.9434800
H       2.85757857      -0.6245438      -0.1370948
H       2.22167400      -0.8940580      -1.5215076
O       -2.1918059      -3.8873612      -2.1185871
H       -2.2341110      -3.3987463      -2.9518468
H       -2.8168474      -3.4516601      -1.5257494
O       -3.6900980      -3.1501746      2.23591341
H       -3.7863726      -2.8597800      1.31561309
H       -4.2177025      -3.9410167      2.31616817
O       2.19022270      0.83570461      -5.6223816
H       2.34739581      1.13175126      -4.7086512
H       2.85628205      1.25635201      -6.1602775
O       -2.1561809      -2.1468743      -4.3107543
H       -1.6525272      -2.2893017      -5.1207314
H       -1.6557677      -1.5067004      -3.7801305
O       -3.6946716      -2.2342376      -0.3871933
H       -4.2661337      -1.5673049      -0.7863482
H       -2.8297240      -1.8096216      -0.2711813
O       -2.6555167      1.88431171      -5.3948638
H       -1.9014625      1.40913594      -5.7902172
H       -3.0030032      2.45985194      -6.0706680
O       -4.1694625      -0.2144542      -4.1506761
H       -3.7387052      0.52681340      -4.5912690
H       -3.5863159      -0.9746269      -4.2823024
O       0.51896126      -2.7907938      1.10100505
H       0.53098791      -3.4001283      0.35170172
H       1.40781029      -2.4334392      1.21984214
O       2.62945271      1.66682030      -3.0885026
H       2.08162229      2.38465269      -2.7488940
H       2.75243409      1.05121404      -2.3552981
O       -5.0609900      -0.1012211      -1.6037680
H       -4.7731881      -0.1388223      -2.5340990
H       -5.9960861      0.08587656      -1.6146049
O       -0.5375553      0.55504429      -6.3833862
H       -0.5955652      -0.3956487      -6.5352737
H       0.37458283      0.72682791      -6.1181949
O       -0.8428082      0.36587236      3.80340069
H       -1.1447214      0.55199592      4.68786647
H       -1.0122416      -0.5807453      3.64057749
O       0.80103268      3.55827979      -2.0019238
H       -0.0054917      3.15514288      -2.3705654
H       0.70521979      4.50247493      -2.0910266
O       -3.1906143      1.96691937      -0.9189693
H       -3.8440737      1.26858924      -1.0426437
H       -2.7519004      1.80627808      -0.0733291
O       1.00735300      1.84680656      0.21659963
H       0.96832779      2.55201851      -0.4400284
H       1.46017521      1.10563173      -0.2108481
O       -0.4850019      -2.2987455      -6.5646953
H       -0.4249079      -2.8727256      -7.3230655
H       0.40063925      -2.2724685      -6.1586349
O       -1.2570855      -1.0140256      -0.0982466
H       -1.3826175      -0.2146312      0.42914570
H       -0.6237733      -1.5812506      0.35889435
O       1.75457260      0.66819301      2.68013399
H       0.92070392      0.57368117      3.15725677
H       1.56947980      1.24530618      1.92749929
O       0.32427096      -4.3110767      -1.2579705
H       0.54311154      -5.2266921      -1.4089930
H       -0.5982052      -4.1922802      -1.5508647
O       -1.4136951      2.31219468      -2.9308049
H       -1.8653264      2.27436292      -3.7821276
H       -2.0830867      2.23943872      -2.2302357
O       2.97025971      -1.4588087      1.55058876
H       3.75802965      -1.7129552      2.02319661
H       2.57505360      -0.7131969      2.03936043
O       -0.7167960      -0.4180698      -2.7051148
H       -0.8701849      0.52257267      -2.8434054
H       -0.9423519      -0.6128141      -1.7822407