57
 Ord_Energy   -203.1692660
O       -0.0312899      0.64451706      5.16822767
H       -0.3621356      0.38490108      4.29699230
H       0.48040640      1.45091069      5.02687073
O       -0.8386062      4.84270239      1.05785155
H       -1.1307609      4.69981813      0.14714150
H       -1.4054751      5.53257132      1.42709029
O       -2.0830264      2.83879137      2.59006691
H       -2.0050053      3.16975689      3.49354362
H       -1.6137946      3.45948434      2.01743889
O       -2.2263248      1.38769603      6.56047535
H       -1.4315590      1.03048944      6.12367344
H       -2.1839933      1.12251854      7.47518301
O       -3.6857492      5.40268040      4.31576824
H       -2.9456090      4.95753860      4.75112724
H       -4.4044632      4.76001215      4.29406786
O       -5.6446538      3.30664611      4.05460548
H       -6.5905675      3.42651820      4.08537674
H       -5.4076328      3.18766451      3.11701941
O       0.56909406      0.79343635      0.64224351
H       1.12450480      0.05905625      0.39244398
H       -0.0100852      0.47673082      1.35691345
O       -1.9380018      4.28331566      -1.4504032
H       -1.8855372      3.31988144      -1.3050485
H       -1.7117649      4.43637705      -2.3631999
O       -2.7798426      6.61326218      2.06160927
H       -2.7904729      7.55552721      2.20729899
H       -3.1326999      6.20327234      2.87109232
O       -1.6030700      3.77780175      5.20866442
H       -0.6488500      3.69974470      5.07684135
H       -1.8693957      3.03853464      5.77099276
O       -4.2186293      5.19651127      0.00724515
H       -3.7998814      5.77496338      0.65696228
H       -3.5145900      4.92178011      -0.5946032
O       -3.7030584      -0.9486836      2.79274797
H       -4.1233282      -1.7800827      2.99405575
H       -3.9814631      -0.3193423      3.48261333
O       -1.1875560      0.24060065      2.64936900
H       -1.5162488      1.15352607      2.60504484
H       -1.9694042      -0.3240970      2.66732168
O       -4.6579003      2.97833371      1.55885053
H       -3.7596035      2.87749958      1.91043961
H       -4.6371069      3.74030614      0.96220642
O       1.10790312      3.21768141      4.65587425
H       1.91457272      3.58783865      5.00416899
H       1.19446170      3.22708273      3.68575406
O       -4.3344974      0.85034865      4.72389984
H       -4.8054504      1.67946219      4.57965803
H       -3.6651260      1.02427280      5.39669180
O       1.26745474      3.24630284      1.95683944
H       1.12610734      2.43505526      1.45441496
H       0.65704805      3.90147400      1.59093344
O       -1.7113843      1.67841792      -0.8939835
H       -2.4692280      1.21268320      -0.5104897
H       -0.9218237      1.35114622      -0.4514354
O       -3.9333410      0.54884356      0.33457351
H       -4.3594093      1.35282421      0.66144198
H       -3.9010236      -0.0462512      1.09164119