54
 Ord_Energy   -190.5854190
O       -6.3797235      -1.2379965      0.40470919
H       -5.4771118      -0.9841682      0.17302383
H       -6.3186845      -2.0907645      0.85929853
O       -6.2766509      -3.6369888      1.88400626
H       -7.0889310      -4.0595488      1.58030474
H       -6.4830923      -3.2117869      2.73032999
O       -5.4657297      1.40115654      4.06912661
H       -6.1980042      1.05516648      3.53213525
H       -5.7699585      2.21942186      4.45385742
O       -10.109548      -0.4886496      2.17812085
H       -10.038084      -1.3349616      2.65611053
H       -10.977918      -0.1404042      2.36024427
O       -0.7918966      -3.1924560      1.01546526
H       -1.7198132      -3.4083938      1.18109047
H       -0.7987149      -2.5014631      0.34133917
O       -0.9802588      -0.8055649      -0.5847283
H       -0.4554929      -0.4601087      -1.3016009
H       -0.7305429      -0.3075039      0.21489856
O       -0.4858412      0.40420228      1.80403721
H       -0.1785394      -0.2971391      2.39256573
H       -1.3535243      0.66793007      2.13846803
O       -9.0712223      -1.8976919      -0.1162822
H       -9.5201454      -1.3368434      0.52806497
H       -8.1573619      -1.5829643      -0.1473904
O       0.06431512      -1.9839848      3.29956508
H       -0.1560479      -2.4891398      2.49580550
H       0.84562951      -2.3829071      3.67235065
O       -9.6379804      -2.8801689      3.38093805
H       -9.4674520      -3.5197928      2.67856908
H       -8.7900238      -2.7447381      3.82648110
O       -7.4124307      0.19869888      2.53740001
H       -7.0215067      -0.2013635      1.74632096
H       -8.3706226      0.13082302      2.43969440
O       -7.0211572      -2.1494271      4.09623241
H       -7.1914806      -1.3374382      3.60049939
H       -6.3146028      -1.9300049      4.71942282
O       -4.9083313      -1.1054985      5.49688196
H       -4.0858416      -1.4246861      5.10115433
H       -5.0285477      -0.2060503      5.17084742
O       -3.6673398      -0.7165191      0.25443527
H       -3.5389583      -0.1795105      1.05096424
H       -2.8211162      -0.7304633      -0.2085773
O       -3.5475518      -3.1870153      1.62402105
H       -4.4456911      -3.5328106      1.70411265
H       -3.6104648      -2.3769636      1.09793341
O       -2.6827185      -1.8791904      3.93901229
H       -3.0143184      -2.4348125      3.21874404
H       -1.7198276      -1.9350092      3.90841365
O       -3.1758554      0.55659658      2.67542529
H       -3.9121110      0.98990083      3.12198162
H       -3.0030517      -0.2612837      3.16596508
O       -8.8683700      -4.3631339      1.03715050
H       -8.9932432      -3.5361125      0.53795403
H       -9.2769708      -5.0582265      0.52864736