69
 Ord_Energy   -252.5970083
O       11.5436175      10.0090752      -13.932158
H       12.0838299      10.7701858      -14.172952
H       11.7357155      9.32440853      -14.586641
O       15.9415215      6.52695495      -13.173707
H       15.5101490      7.26348417      -13.635022
H       15.5801936      6.52140594      -12.278598
O       16.9231347      10.2493501      -15.726933
H       17.5171104      9.54815107      -16.024457
H       17.2371214      10.5356240      -14.859089
O       12.1648893      5.41797687      -14.557063
H       11.5270902      4.70984178      -14.574689
H       12.2435905      5.69975325      -13.627458
O       16.2928382      9.69988533      -8.9807594
H       16.5319553      8.77291124      -8.8570532
H       15.4062551      9.69668286      -9.3644632
O       14.8094389      6.79931510      -10.653262
H       14.5208415      7.72193984      -10.592511
H       15.5651497      6.71306022      -10.059331
O       14.8445918      10.8865413      -12.602969
H       15.7995616      10.8817728      -12.759267
H       14.4149667      11.4459080      -13.262905
O       16.0200004      7.03555239      -17.151001
H       15.6153307      6.33890511      -16.612017
H       15.3000740      7.55589562      -17.520623
O       17.1307433      6.95202848      -9.0791432
H       17.5458755      6.39061664      -8.4300937
H       17.8333644      7.24669741      -9.6859057
O       18.4025751      7.94048720      -16.321228
H       17.5686627      7.55370665      -16.649335
H       19.0792463      7.71030825      -16.951529
O       14.9108273      5.19202614      -15.411022
H       13.9733527      5.16166713      -15.189908
H       15.3546025      5.45765818      -14.593755
O       18.3170324      7.85436773      -13.482480
H       18.4984852      7.82012537      -14.428744
H       17.5365695      7.29785710      -13.335379
O       14.5594365      11.1256888      -16.871883
H       15.4636791      10.9290720      -16.586700
H       14.2581578      10.3450288      -17.350966
O       14.8520818      8.74421006      -14.393723
H       15.5066608      9.12952474      -14.988646
H       14.7041478      9.39789404      -13.698734
O       11.3218902      8.93229129      -11.455605
H       11.3743616      9.35036241      -12.333756
H       10.4511553      9.11837674      -11.114474
O       18.9998844      7.99969700      -10.753345
H       18.9140172      7.86779287      -11.706764
H       18.9523264      8.95281759      -10.611162
O       12.3729829      6.33111231      -12.020551
H       13.1863133      6.31598551      -11.500969
H       11.9434196      7.17077181      -11.816770
O       17.5777451      10.5229153      -13.016374
H       17.8112294      9.59229302      -13.153473
H       17.9100518      10.7544132      -12.139809
O       18.3690734      10.7878598      -10.351300
H       17.6014817      10.4740554      -9.8398097
H       18.8137947      11.4349875      -9.8108130
O       13.7322850      8.61977221      -17.983677
H       13.2108012      8.43153482      -18.760093
H       13.1949005      8.36068648      -17.215585
O       13.9142353      9.44562654      -10.478781
H       14.2465264      10.0131258      -11.191312
H       12.9765010      9.31221196      -10.661537
O       13.3714226      12.1135612      -14.650505
H       13.1186482      13.0181395      -14.814898
H       13.7633485      11.7787486      -15.476953
O       12.5203510      7.97381477      -15.618762
H       13.3527440      8.20338760      -15.173125
H       12.2969101      7.07757787      -15.338452