21
 Ord_Energy   -57.5936966
O       31.0308933      3.52473974      -3.1503138
H       31.6440563      2.82474852      -2.8820259
H       30.2756157      3.02746582      -3.4877553
O       32.1644554      4.67093897      -5.3299360
H       31.7534714      4.34262657      -4.5095100
H       31.7744274      5.52063179      -5.5152421
O       29.6631279      1.34998333      -4.4269290
H       30.2079067      1.56070101      -5.2050962
H       28.9088459      0.86447304      -4.7486267
O       31.4253330      2.06991553      -6.4156522
H       32.2326660      1.58780646      -6.1922802
H       31.6261101      2.99586940      -6.2346692
O       34.7100830      3.55697274      -5.1009817
H       35.2056198      4.03463125      -4.4396200
H       33.8736305      4.03673506      -5.2072730
O       32.2184219      0.99937427      -2.9937064
H       31.3380642      0.88344705      -3.3734233
H       32.8282928      0.89145339      -3.7336123
O       33.8512497      0.96927398      -5.3846616
H       34.2558861      1.84846652      -5.2892942
H       34.5312500      0.38861448      -5.7158894