30
 Ord_Energy   -94.6706543
O       7.58198261      -0.6633247      5.48388386
H       8.36235046      -0.0793704      5.49856758
H       7.84605503      -1.4647572      5.04103088
O       9.45670223      1.64230108      8.57064438
H       10.1144714      1.65558100      9.26154709
H       9.18196201      2.56277084      8.42830849
O       9.66488552      1.02776361      5.75877810
H       9.48555756      1.91433585      5.41187191
H       9.76045799      1.14400733      6.71096945
O       6.00038338      4.00944805      7.34921408
H       5.98390388      4.02547455      6.38327551
H       5.53608322      3.20333767      7.60877275
O       4.83373117      1.48219502      7.88300753
H       5.62812710      0.95545012      8.08472157
H       4.13404751      1.14970589      8.43821812
O       7.11002588      0.05139489      8.20557308
H       7.26237297      -0.3255569      7.32894468
H       7.90646505      0.55260736      8.41990852
O       6.17388153      3.68844509      4.52887201
H       5.70107937      4.02263212      3.77177286
H       5.90383720      2.75926399      4.64106369
O       5.42955160      1.14508927      5.09775114
H       6.13500071      0.48611858      5.13362455
H       5.08516741      1.21172726      5.99729252
O       8.59759712      4.22248077      8.03175068
H       7.64180279      4.16680002      7.84854269
H       8.76017666      5.09782505      8.37274837
O       8.95433617      3.64752674      5.17708397
H       8.92737389      3.95423770      6.09042168
H       8.04326439      3.69885206      4.86004257