33
 Ord_Energy   -104.8138350
O       4.45336962      -0.9675253      1.83930850
H       4.08073092      -1.2683891      2.68102717
H       4.32899237      -0.0105853      1.82525396
O       0.73975992      -2.1542685      2.13111806
H       0.20936921      -1.3800066      1.90096390
H       1.34880912      -2.2765908      1.39141178
O       -0.5621638      -1.9917194      4.68007135
H       -0.2254411      -2.2606382      3.81548429
H       -0.6352735      -1.0308120      4.63672161
O       -0.5276358      0.88827866      4.23409653
H       -0.8684903      1.50962758      4.87113190
H       0.44255015      0.99487477      4.22656202
O       2.66332269      -1.9855953      0.07234056
H       3.06250429      -2.5519621      -0.5818879
H       3.38176727      -1.6762169      0.65393680
O       1.61061418      -2.7050497      6.25079155
H       1.44463873      -3.4782838      6.78355169
H       0.76934648      -2.4967052      5.81134701
O       2.84421420      -1.6748336      4.00430632
H       2.12256312      -1.8659170      3.38907647
H       2.59096742      -2.0710115      4.84916019
O       3.54894924      1.76194918      1.71982217
H       3.93965054      2.54836512      1.34890270
H       2.86665487      1.46357822      1.09251142
O       1.64275968      0.69770682      0.08575700
H       0.78604674      0.62531269      0.52425241
H       1.94047093      -0.2080209      -0.0694484
O       2.13929272      1.04073358      4.07991505
H       2.45326257      0.13102120      4.17685795
H       2.63330793      1.41115308      3.33911943
O       -0.7514883      0.20787880      1.57095075
H       -0.7386631      0.52534932      2.48849893
H       -1.6648099      0.20298681      1.29404747