9
 Ord_Energy   -15.9416428
O       25.3875809      2.28446364      8.01933861
H       24.6864510      2.11461496      7.36908007
H       26.1070786      1.70453322      7.77935553
O       22.9643402      1.68695939      6.75715494
H       22.7494984      1.67431045      7.70416498
H       22.2382431      2.13693213      6.33168697
O       23.0780773      1.86950338      9.54773140
H       22.9238548      2.46375370      10.2781725
H       23.9850082      2.04813766      9.25002480