18
 Ord_Energy   -46.5315552
O       25.9126797      4.29365396      27.7117825
H       26.4442463      4.54399681      26.9467773
H       25.2130337      3.73617911      27.3463573
O       26.7991600      5.09467983      25.0134773
H       25.8775806      5.41156626      25.0174980
H       27.3406525      5.83476639      24.7541962
O       24.4542828      6.66862679      27.8622341
H       24.1615925      6.91166258      28.7364750
H       24.9915466      5.86728811      27.9734116
O       24.1495838      5.72118950      25.2537212
H       24.1281662      6.19553995      26.0985832
H       23.8597832      4.82338667      25.4574318
O       26.1187897      2.45435238      24.4402142
H       26.8724747      1.88090622      24.3252258
H       26.4757614      3.35144091      24.5405731
O       23.9541073      2.93191457      26.0668354
H       24.6537933      2.63791275      25.4587955
H       23.2909279      2.24694753      26.0709209