21
 Ord_Energy   -57.8319664
O       32.9785347      2.47792697      -6.9735236
H       32.1806602      2.85497546      -6.5594425
H       32.8864021      2.60883498      -7.9125385
O       33.7763748      0.58886528      -5.0406155
H       33.4611588      1.13189435      -5.7815494
H       34.0771370      -0.2346552      -5.4166150
O       29.4817715      1.35507023      -4.5820078
H       28.7119846      1.07264745      -4.0954093
H       30.2398758      1.20727551      -3.9917492
O       31.7936611      1.22622347      -3.0703752
H       31.9690533      2.16996717      -2.9657328
H       32.4792175      0.89996153      -3.6673431
O       34.5903778      3.34339523      -4.7431120
H       34.2045059      3.36090350      -5.6282835
H       34.6538200      2.40015364      -4.5503168
O       30.8828506      3.51472712      -5.6218195
H       31.2674732      3.84614348      -4.8014712
H       30.2762489      2.80669689      -5.3579287
O       32.3974495      4.04858446      -3.2236666
H       33.2369919      3.90316296      -3.6913201
H       32.5460052      4.76399660      -2.6110520